Global frequency set at 1000000000000 ticks per second
gem5 Simulator System.  https://www.gem5.org
gem5 is copyrighted software; use the --copyright option for details.

gem5 version 22.0.0.1
gem5 compiled May 15 2026 03:11:49
gem5 started May 15 2026 04:21:30
gem5 executing on 5a59fcb8280b, pid 25009
command line: /ezh/gem5/build/RISCV/gem5.opt --debug-flags=DRAMOpt --outdir=/ezh/workloads/amr_workload/m5out_amr_counts_riscv /ezh/gem5/configs/example/riscv-se.py --cpu-type=AtomicSimpleCPU --cpu-clock=1GHz --cacheline_size=64 --num-cpus=1 --mem-size=2147483648 --cmd=/ezh/workloads/amr_workload/amr_counts

Beginning simulation!
GCELL idx=0 base=0x0000000000012d00 addr=0x0000000000012d00 offset=0x0000000000000000 sizeof_cell=48
GCELL idx=1 base=0x0000000000012d00 addr=0x0000000000012d30 offset=0x0000000000000030 sizeof_cell=48
GCELL idx=2 base=0x0000000000012d00 addr=0x0000000000012d60 offset=0x0000000000000060 sizeof_cell=48
GCELL idx=3 base=0x0000000000012d00 addr=0x0000000000012d90 offset=0x0000000000000090 sizeof_cell=48
GCELL idx=4 base=0x0000000000012d00 addr=0x0000000000012dc0 offset=0x00000000000000c0 sizeof_cell=48
GCELL idx=5 base=0x0000000000012d00 addr=0x0000000000012df0 offset=0x00000000000000f0 sizeof_cell=48
GCELL idx=6 base=0x0000000000012d00 addr=0x0000000000012e20 offset=0x0000000000000120 sizeof_cell=48
GCELL idx=7 base=0x0000000000012d00 addr=0x0000000000012e50 offset=0x0000000000000150 sizeof_cell=48
GCELL idx=8 base=0x0000000000012d00 addr=0x0000000000012e80 offset=0x0000000000000180 sizeof_cell=48
GCELL idx=9 base=0x0000000000012d00 addr=0x0000000000012eb0 offset=0x00000000000001b0 sizeof_cell=48
GCELL idx=10 base=0x0000000000012d00 addr=0x0000000000012ee0 offset=0x00000000000001e0 sizeof_cell=48
GCELL idx=11 base=0x0000000000012d00 addr=0x0000000000012f10 offset=0x0000000000000210 sizeof_cell=48
GCELL idx=12 base=0x0000000000012d00 addr=0x0000000000012f40 offset=0x0000000000000240 sizeof_cell=48
GCELL idx=13 base=0x0000000000012d00 addr=0x0000000000012f70 offset=0x0000000000000270 sizeof_cell=48
GCELL idx=14 base=0x0000000000012d00 addr=0x0000000000012fa0 offset=0x00000000000002a0 sizeof_cell=48
GCELL idx=15 base=0x0000000000012d00 addr=0x0000000000012fd0 offset=0x00000000000002d0 sizeof_cell=48
GCELL idx=16 base=0x0000000000012d00 addr=0x0000000000013000 offset=0x0000000000000300 sizeof_cell=48
GCELL idx=17 base=0x0000000000012d00 addr=0x0000000000013030 offset=0x0000000000000330 sizeof_cell=48
GCELL idx=18 base=0x0000000000012d00 addr=0x0000000000013060 offset=0x0000000000000360 sizeof_cell=48
GCELL idx=19 base=0x0000000000012d00 addr=0x0000000000013090 offset=0x0000000000000390 sizeof_cell=48
GCELL idx=20 base=0x0000000000012d00 addr=0x00000000000130c0 offset=0x00000000000003c0 sizeof_cell=48
GCELL idx=21 base=0x0000000000012d00 addr=0x00000000000130f0 offset=0x00000000000003f0 sizeof_cell=48
GCELL idx=22 base=0x0000000000012d00 addr=0x0000000000013120 offset=0x0000000000000420 sizeof_cell=48
GCELL idx=23 base=0x0000000000012d00 addr=0x0000000000013150 offset=0x0000000000000450 sizeof_cell=48
GCELL idx=24 base=0x0000000000012d00 addr=0x0000000000013180 offset=0x0000000000000480 sizeof_cell=48
GCELL idx=25 base=0x0000000000012d00 addr=0x00000000000131b0 offset=0x00000000000004b0 sizeof_cell=48
GCELL idx=26 base=0x0000000000012d00 addr=0x00000000000131e0 offset=0x00000000000004e0 sizeof_cell=48
GCELL idx=27 base=0x0000000000012d00 addr=0x0000000000013210 offset=0x0000000000000510 sizeof_cell=48
GCELL idx=28 base=0x0000000000012d00 addr=0x0000000000013240 offset=0x0000000000000540 sizeof_cell=48
GCELL idx=29 base=0x0000000000012d00 addr=0x0000000000013270 offset=0x0000000000000570 sizeof_cell=48
GCELL idx=30 base=0x0000000000012d00 addr=0x00000000000132a0 offset=0x00000000000005a0 sizeof_cell=48
GCELL idx=31 base=0x0000000000012d00 addr=0x00000000000132d0 offset=0x00000000000005d0 sizeof_cell=48
GCELL idx=32 base=0x0000000000012d00 addr=0x0000000000013300 offset=0x0000000000000600 sizeof_cell=48
GCELL idx=33 base=0x0000000000012d00 addr=0x0000000000013330 offset=0x0000000000000630 sizeof_cell=48
GCELL idx=34 base=0x0000000000012d00 addr=0x0000000000013360 offset=0x0000000000000660 sizeof_cell=48
GCELL idx=35 base=0x0000000000012d00 addr=0x0000000000013390 offset=0x0000000000000690 sizeof_cell=48
GCELL idx=36 base=0x0000000000012d00 addr=0x00000000000133c0 offset=0x00000000000006c0 sizeof_cell=48
GCELL idx=37 base=0x0000000000012d00 addr=0x00000000000133f0 offset=0x00000000000006f0 sizeof_cell=48
GCELL idx=38 base=0x0000000000012d00 addr=0x0000000000013420 offset=0x0000000000000720 sizeof_cell=48
GCELL idx=39 base=0x0000000000012d00 addr=0x0000000000013450 offset=0x0000000000000750 sizeof_cell=48
GCELL idx=40 base=0x0000000000012d00 addr=0x0000000000013480 offset=0x0000000000000780 sizeof_cell=48
GCELL idx=41 base=0x0000000000012d00 addr=0x00000000000134b0 offset=0x00000000000007b0 sizeof_cell=48
GCELL idx=42 base=0x0000000000012d00 addr=0x00000000000134e0 offset=0x00000000000007e0 sizeof_cell=48
GCELL idx=43 base=0x0000000000012d00 addr=0x0000000000013510 offset=0x0000000000000810 sizeof_cell=48
GCELL idx=44 base=0x0000000000012d00 addr=0x0000000000013540 offset=0x0000000000000840 sizeof_cell=48
GCELL idx=45 base=0x0000000000012d00 addr=0x0000000000013570 offset=0x0000000000000870 sizeof_cell=48
GCELL idx=46 base=0x0000000000012d00 addr=0x00000000000135a0 offset=0x00000000000008a0 sizeof_cell=48
GCELL idx=47 base=0x0000000000012d00 addr=0x00000000000135d0 offset=0x00000000000008d0 sizeof_cell=48
GCELL idx=48 base=0x0000000000012d00 addr=0x0000000000013600 offset=0x0000000000000900 sizeof_cell=48
GCELL idx=49 base=0x0000000000012d00 addr=0x0000000000013630 offset=0x0000000000000930 sizeof_cell=48
GCELL idx=50 base=0x0000000000012d00 addr=0x0000000000013660 offset=0x0000000000000960 sizeof_cell=48
GCELL idx=51 base=0x0000000000012d00 addr=0x0000000000013690 offset=0x0000000000000990 sizeof_cell=48
GCELL idx=52 base=0x0000000000012d00 addr=0x00000000000136c0 offset=0x00000000000009c0 sizeof_cell=48
GCELL idx=53 base=0x0000000000012d00 addr=0x00000000000136f0 offset=0x00000000000009f0 sizeof_cell=48
GCELL idx=54 base=0x0000000000012d00 addr=0x0000000000013720 offset=0x0000000000000a20 sizeof_cell=48
GCELL idx=55 base=0x0000000000012d00 addr=0x0000000000013750 offset=0x0000000000000a50 sizeof_cell=48
GCELL idx=56 base=0x0000000000012d00 addr=0x0000000000013780 offset=0x0000000000000a80 sizeof_cell=48
GCELL idx=57 base=0x0000000000012d00 addr=0x00000000000137b0 offset=0x0000000000000ab0 sizeof_cell=48
GCELL idx=58 base=0x0000000000012d00 addr=0x00000000000137e0 offset=0x0000000000000ae0 sizeof_cell=48
GCELL idx=59 base=0x0000000000012d00 addr=0x0000000000013810 offset=0x0000000000000b10 sizeof_cell=48
GCELL idx=60 base=0x0000000000012d00 addr=0x0000000000013840 offset=0x0000000000000b40 sizeof_cell=48
GCELL idx=61 base=0x0000000000012d00 addr=0x0000000000013870 offset=0x0000000000000b70 sizeof_cell=48
GCELL idx=62 base=0x0000000000012d00 addr=0x00000000000138a0 offset=0x0000000000000ba0 sizeof_cell=48
GCELL idx=63 base=0x0000000000012d00 addr=0x00000000000138d0 offset=0x0000000000000bd0 sizeof_cell=48
GCELL idx=64 base=0x0000000000012d00 addr=0x0000000000013900 offset=0x0000000000000c00 sizeof_cell=48
GCELL idx=65 base=0x0000000000012d00 addr=0x0000000000013930 offset=0x0000000000000c30 sizeof_cell=48
GCELL idx=66 base=0x0000000000012d00 addr=0x0000000000013960 offset=0x0000000000000c60 sizeof_cell=48
GCELL idx=67 base=0x0000000000012d00 addr=0x0000000000013990 offset=0x0000000000000c90 sizeof_cell=48
GCELL idx=68 base=0x0000000000012d00 addr=0x00000000000139c0 offset=0x0000000000000cc0 sizeof_cell=48
GCELL idx=69 base=0x0000000000012d00 addr=0x00000000000139f0 offset=0x0000000000000cf0 sizeof_cell=48
GCELL idx=70 base=0x0000000000012d00 addr=0x0000000000013a20 offset=0x0000000000000d20 sizeof_cell=48
GCELL idx=71 base=0x0000000000012d00 addr=0x0000000000013a50 offset=0x0000000000000d50 sizeof_cell=48
GCELL idx=72 base=0x0000000000012d00 addr=0x0000000000013a80 offset=0x0000000000000d80 sizeof_cell=48
GCELL idx=73 base=0x0000000000012d00 addr=0x0000000000013ab0 offset=0x0000000000000db0 sizeof_cell=48
GCELL idx=74 base=0x0000000000012d00 addr=0x0000000000013ae0 offset=0x0000000000000de0 sizeof_cell=48
GCELL idx=75 base=0x0000000000012d00 addr=0x0000000000013b10 offset=0x0000000000000e10 sizeof_cell=48
GCELL idx=76 base=0x0000000000012d00 addr=0x0000000000013b40 offset=0x0000000000000e40 sizeof_cell=48
GCELL idx=77 base=0x0000000000012d00 addr=0x0000000000013b70 offset=0x0000000000000e70 sizeof_cell=48
GCELL idx=78 base=0x0000000000012d00 addr=0x0000000000013ba0 offset=0x0000000000000ea0 sizeof_cell=48
GCELL idx=79 base=0x0000000000012d00 addr=0x0000000000013bd0 offset=0x0000000000000ed0 sizeof_cell=48
GCELL idx=80 base=0x0000000000012d00 addr=0x0000000000013c00 offset=0x0000000000000f00 sizeof_cell=48
GCELL idx=81 base=0x0000000000012d00 addr=0x0000000000013c30 offset=0x0000000000000f30 sizeof_cell=48
GCELL idx=82 base=0x0000000000012d00 addr=0x0000000000013c60 offset=0x0000000000000f60 sizeof_cell=48
GCELL idx=83 base=0x0000000000012d00 addr=0x0000000000013c90 offset=0x0000000000000f90 sizeof_cell=48
GCELL idx=84 base=0x0000000000012d00 addr=0x0000000000013cc0 offset=0x0000000000000fc0 sizeof_cell=48
GCELL idx=85 base=0x0000000000012d00 addr=0x0000000000013cf0 offset=0x0000000000000ff0 sizeof_cell=48
GCELL idx=86 base=0x0000000000012d00 addr=0x0000000000013d20 offset=0x0000000000001020 sizeof_cell=48
GCELL idx=87 base=0x0000000000012d00 addr=0x0000000000013d50 offset=0x0000000000001050 sizeof_cell=48
GCELL idx=88 base=0x0000000000012d00 addr=0x0000000000013d80 offset=0x0000000000001080 sizeof_cell=48
GCELL idx=89 base=0x0000000000012d00 addr=0x0000000000013db0 offset=0x00000000000010b0 sizeof_cell=48
GCELL idx=90 base=0x0000000000012d00 addr=0x0000000000013de0 offset=0x00000000000010e0 sizeof_cell=48
GCELL idx=91 base=0x0000000000012d00 addr=0x0000000000013e10 offset=0x0000000000001110 sizeof_cell=48
GCELL idx=92 base=0x0000000000012d00 addr=0x0000000000013e40 offset=0x0000000000001140 sizeof_cell=48
GCELL idx=93 base=0x0000000000012d00 addr=0x0000000000013e70 offset=0x0000000000001170 sizeof_cell=48
GCELL idx=94 base=0x0000000000012d00 addr=0x0000000000013ea0 offset=0x00000000000011a0 sizeof_cell=48
GCELL idx=95 base=0x0000000000012d00 addr=0x0000000000013ed0 offset=0x00000000000011d0 sizeof_cell=48
GCELL idx=96 base=0x0000000000012d00 addr=0x0000000000013f00 offset=0x0000000000001200 sizeof_cell=48
GCELL idx=97 base=0x0000000000012d00 addr=0x0000000000013f30 offset=0x0000000000001230 sizeof_cell=48
GCELL idx=98 base=0x0000000000012d00 addr=0x0000000000013f60 offset=0x0000000000001260 sizeof_cell=48
GCELL idx=99 base=0x0000000000012d00 addr=0x0000000000013f90 offset=0x0000000000001290 sizeof_cell=48
GCELL idx=100 base=0x0000000000012d00 addr=0x0000000000013fc0 offset=0x00000000000012c0 sizeof_cell=48
GCELL idx=101 base=0x0000000000012d00 addr=0x0000000000013ff0 offset=0x00000000000012f0 sizeof_cell=48
GCELL idx=102 base=0x0000000000012d00 addr=0x0000000000014020 offset=0x0000000000001320 sizeof_cell=48
GCELL idx=103 base=0x0000000000012d00 addr=0x0000000000014050 offset=0x0000000000001350 sizeof_cell=48
GCELL idx=104 base=0x0000000000012d00 addr=0x0000000000014080 offset=0x0000000000001380 sizeof_cell=48
GCELL idx=105 base=0x0000000000012d00 addr=0x00000000000140b0 offset=0x00000000000013b0 sizeof_cell=48
GCELL idx=106 base=0x0000000000012d00 addr=0x00000000000140e0 offset=0x00000000000013e0 sizeof_cell=48
GCELL idx=107 base=0x0000000000012d00 addr=0x0000000000014110 offset=0x0000000000001410 sizeof_cell=48
GCELL idx=108 base=0x0000000000012d00 addr=0x0000000000014140 offset=0x0000000000001440 sizeof_cell=48
GCELL idx=109 base=0x0000000000012d00 addr=0x0000000000014170 offset=0x0000000000001470 sizeof_cell=48
GCELL idx=110 base=0x0000000000012d00 addr=0x00000000000141a0 offset=0x00000000000014a0 sizeof_cell=48
GCELL idx=111 base=0x0000000000012d00 addr=0x00000000000141d0 offset=0x00000000000014d0 sizeof_cell=48
GCELL idx=112 base=0x0000000000012d00 addr=0x0000000000014200 offset=0x0000000000001500 sizeof_cell=48
GCELL idx=113 base=0x0000000000012d00 addr=0x0000000000014230 offset=0x0000000000001530 sizeof_cell=48
GCELL idx=114 base=0x0000000000012d00 addr=0x0000000000014260 offset=0x0000000000001560 sizeof_cell=48
GCELL idx=115 base=0x0000000000012d00 addr=0x0000000000014290 offset=0x0000000000001590 sizeof_cell=48
GCELL idx=116 base=0x0000000000012d00 addr=0x00000000000142c0 offset=0x00000000000015c0 sizeof_cell=48
GCELL idx=117 base=0x0000000000012d00 addr=0x00000000000142f0 offset=0x00000000000015f0 sizeof_cell=48
GCELL idx=118 base=0x0000000000012d00 addr=0x0000000000014320 offset=0x0000000000001620 sizeof_cell=48
GCELL idx=119 base=0x0000000000012d00 addr=0x0000000000014350 offset=0x0000000000001650 sizeof_cell=48
GCELL idx=120 base=0x0000000000012d00 addr=0x0000000000014380 offset=0x0000000000001680 sizeof_cell=48
GCELL idx=121 base=0x0000000000012d00 addr=0x00000000000143b0 offset=0x00000000000016b0 sizeof_cell=48
GCELL idx=122 base=0x0000000000012d00 addr=0x00000000000143e0 offset=0x00000000000016e0 sizeof_cell=48
GCELL idx=123 base=0x0000000000012d00 addr=0x0000000000014410 offset=0x0000000000001710 sizeof_cell=48
GCELL idx=124 base=0x0000000000012d00 addr=0x0000000000014440 offset=0x0000000000001740 sizeof_cell=48
GCELL idx=125 base=0x0000000000012d00 addr=0x0000000000014470 offset=0x0000000000001770 sizeof_cell=48
GCELL idx=126 base=0x0000000000012d00 addr=0x00000000000144a0 offset=0x00000000000017a0 sizeof_cell=48
GCELL idx=127 base=0x0000000000012d00 addr=0x00000000000144d0 offset=0x00000000000017d0 sizeof_cell=48
GCELL idx=128 base=0x0000000000012d00 addr=0x0000000000014500 offset=0x0000000000001800 sizeof_cell=48
GCELL idx=129 base=0x0000000000012d00 addr=0x0000000000014530 offset=0x0000000000001830 sizeof_cell=48
GCELL idx=130 base=0x0000000000012d00 addr=0x0000000000014560 offset=0x0000000000001860 sizeof_cell=48
GCELL idx=131 base=0x0000000000012d00 addr=0x0000000000014590 offset=0x0000000000001890 sizeof_cell=48
GCELL idx=132 base=0x0000000000012d00 addr=0x00000000000145c0 offset=0x00000000000018c0 sizeof_cell=48
GCELL idx=133 base=0x0000000000012d00 addr=0x00000000000145f0 offset=0x00000000000018f0 sizeof_cell=48
GCELL idx=134 base=0x0000000000012d00 addr=0x0000000000014620 offset=0x0000000000001920 sizeof_cell=48
GCELL idx=135 base=0x0000000000012d00 addr=0x0000000000014650 offset=0x0000000000001950 sizeof_cell=48
GCELL idx=136 base=0x0000000000012d00 addr=0x0000000000014680 offset=0x0000000000001980 sizeof_cell=48
GCELL idx=137 base=0x0000000000012d00 addr=0x00000000000146b0 offset=0x00000000000019b0 sizeof_cell=48
GCELL idx=138 base=0x0000000000012d00 addr=0x00000000000146e0 offset=0x00000000000019e0 sizeof_cell=48
GCELL idx=139 base=0x0000000000012d00 addr=0x0000000000014710 offset=0x0000000000001a10 sizeof_cell=48
GCELL idx=140 base=0x0000000000012d00 addr=0x0000000000014740 offset=0x0000000000001a40 sizeof_cell=48
GCELL idx=141 base=0x0000000000012d00 addr=0x0000000000014770 offset=0x0000000000001a70 sizeof_cell=48
GCELL idx=142 base=0x0000000000012d00 addr=0x00000000000147a0 offset=0x0000000000001aa0 sizeof_cell=48
GCELL idx=143 base=0x0000000000012d00 addr=0x00000000000147d0 offset=0x0000000000001ad0 sizeof_cell=48
GCELL idx=144 base=0x0000000000012d00 addr=0x0000000000014800 offset=0x0000000000001b00 sizeof_cell=48
GCELL idx=145 base=0x0000000000012d00 addr=0x0000000000014830 offset=0x0000000000001b30 sizeof_cell=48
GCELL idx=146 base=0x0000000000012d00 addr=0x0000000000014860 offset=0x0000000000001b60 sizeof_cell=48
GCELL idx=147 base=0x0000000000012d00 addr=0x0000000000014890 offset=0x0000000000001b90 sizeof_cell=48
GCELL idx=148 base=0x0000000000012d00 addr=0x00000000000148c0 offset=0x0000000000001bc0 sizeof_cell=48
GCELL idx=149 base=0x0000000000012d00 addr=0x00000000000148f0 offset=0x0000000000001bf0 sizeof_cell=48
GCELL idx=150 base=0x0000000000012d00 addr=0x0000000000014920 offset=0x0000000000001c20 sizeof_cell=48
GCELL idx=151 base=0x0000000000012d00 addr=0x0000000000014950 offset=0x0000000000001c50 sizeof_cell=48
GCELL idx=152 base=0x0000000000012d00 addr=0x0000000000014980 offset=0x0000000000001c80 sizeof_cell=48
GCELL idx=153 base=0x0000000000012d00 addr=0x00000000000149b0 offset=0x0000000000001cb0 sizeof_cell=48
GCELL idx=154 base=0x0000000000012d00 addr=0x00000000000149e0 offset=0x0000000000001ce0 sizeof_cell=48
GCELL idx=155 base=0x0000000000012d00 addr=0x0000000000014a10 offset=0x0000000000001d10 sizeof_cell=48
GCELL idx=156 base=0x0000000000012d00 addr=0x0000000000014a40 offset=0x0000000000001d40 sizeof_cell=48
GCELL idx=157 base=0x0000000000012d00 addr=0x0000000000014a70 offset=0x0000000000001d70 sizeof_cell=48
GCELL idx=158 base=0x0000000000012d00 addr=0x0000000000014aa0 offset=0x0000000000001da0 sizeof_cell=48
GCELL idx=159 base=0x0000000000012d00 addr=0x0000000000014ad0 offset=0x0000000000001dd0 sizeof_cell=48
GCELL idx=160 base=0x0000000000012d00 addr=0x0000000000014b00 offset=0x0000000000001e00 sizeof_cell=48
GCELL idx=161 base=0x0000000000012d00 addr=0x0000000000014b30 offset=0x0000000000001e30 sizeof_cell=48
GCELL idx=162 base=0x0000000000012d00 addr=0x0000000000014b60 offset=0x0000000000001e60 sizeof_cell=48
GCELL idx=163 base=0x0000000000012d00 addr=0x0000000000014b90 offset=0x0000000000001e90 sizeof_cell=48
GCELL idx=164 base=0x0000000000012d00 addr=0x0000000000014bc0 offset=0x0000000000001ec0 sizeof_cell=48
GCELL idx=165 base=0x0000000000012d00 addr=0x0000000000014bf0 offset=0x0000000000001ef0 sizeof_cell=48
GCELL idx=166 base=0x0000000000012d00 addr=0x0000000000014c20 offset=0x0000000000001f20 sizeof_cell=48
GCELL idx=167 base=0x0000000000012d00 addr=0x0000000000014c50 offset=0x0000000000001f50 sizeof_cell=48
GCELL idx=168 base=0x0000000000012d00 addr=0x0000000000014c80 offset=0x0000000000001f80 sizeof_cell=48
GCELL idx=169 base=0x0000000000012d00 addr=0x0000000000014cb0 offset=0x0000000000001fb0 sizeof_cell=48
GCELL idx=170 base=0x0000000000012d00 addr=0x0000000000014ce0 offset=0x0000000000001fe0 sizeof_cell=48
GCELL idx=171 base=0x0000000000012d00 addr=0x0000000000014d10 offset=0x0000000000002010 sizeof_cell=48
GCELL idx=172 base=0x0000000000012d00 addr=0x0000000000014d40 offset=0x0000000000002040 sizeof_cell=48
GCELL idx=173 base=0x0000000000012d00 addr=0x0000000000014d70 offset=0x0000000000002070 sizeof_cell=48
GCELL idx=174 base=0x0000000000012d00 addr=0x0000000000014da0 offset=0x00000000000020a0 sizeof_cell=48
GCELL idx=175 base=0x0000000000012d00 addr=0x0000000000014dd0 offset=0x00000000000020d0 sizeof_cell=48
GCELL idx=176 base=0x0000000000012d00 addr=0x0000000000014e00 offset=0x0000000000002100 sizeof_cell=48
GCELL idx=177 base=0x0000000000012d00 addr=0x0000000000014e30 offset=0x0000000000002130 sizeof_cell=48
GCELL idx=178 base=0x0000000000012d00 addr=0x0000000000014e60 offset=0x0000000000002160 sizeof_cell=48
GCELL idx=179 base=0x0000000000012d00 addr=0x0000000000014e90 offset=0x0000000000002190 sizeof_cell=48
GCELL idx=180 base=0x0000000000012d00 addr=0x0000000000014ec0 offset=0x00000000000021c0 sizeof_cell=48
GCELL idx=181 base=0x0000000000012d00 addr=0x0000000000014ef0 offset=0x00000000000021f0 sizeof_cell=48
GCELL idx=182 base=0x0000000000012d00 addr=0x0000000000014f20 offset=0x0000000000002220 sizeof_cell=48
GCELL idx=183 base=0x0000000000012d00 addr=0x0000000000014f50 offset=0x0000000000002250 sizeof_cell=48
GCELL idx=184 base=0x0000000000012d00 addr=0x0000000000014f80 offset=0x0000000000002280 sizeof_cell=48
GCELL idx=185 base=0x0000000000012d00 addr=0x0000000000014fb0 offset=0x00000000000022b0 sizeof_cell=48
GCELL idx=186 base=0x0000000000012d00 addr=0x0000000000014fe0 offset=0x00000000000022e0 sizeof_cell=48
GCELL idx=187 base=0x0000000000012d00 addr=0x0000000000015010 offset=0x0000000000002310 sizeof_cell=48
GCELL idx=188 base=0x0000000000012d00 addr=0x0000000000015040 offset=0x0000000000002340 sizeof_cell=48
GCELL idx=189 base=0x0000000000012d00 addr=0x0000000000015070 offset=0x0000000000002370 sizeof_cell=48
GCELL idx=190 base=0x0000000000012d00 addr=0x00000000000150a0 offset=0x00000000000023a0 sizeof_cell=48
GCELL idx=191 base=0x0000000000012d00 addr=0x00000000000150d0 offset=0x00000000000023d0 sizeof_cell=48
GCELL idx=192 base=0x0000000000012d00 addr=0x0000000000015100 offset=0x0000000000002400 sizeof_cell=48
GCELL idx=193 base=0x0000000000012d00 addr=0x0000000000015130 offset=0x0000000000002430 sizeof_cell=48
GCELL idx=194 base=0x0000000000012d00 addr=0x0000000000015160 offset=0x0000000000002460 sizeof_cell=48
GCELL idx=195 base=0x0000000000012d00 addr=0x0000000000015190 offset=0x0000000000002490 sizeof_cell=48
GCELL idx=196 base=0x0000000000012d00 addr=0x00000000000151c0 offset=0x00000000000024c0 sizeof_cell=48
GCELL idx=197 base=0x0000000000012d00 addr=0x00000000000151f0 offset=0x00000000000024f0 sizeof_cell=48
GCELL idx=198 base=0x0000000000012d00 addr=0x0000000000015220 offset=0x0000000000002520 sizeof_cell=48
GCELL idx=199 base=0x0000000000012d00 addr=0x0000000000015250 offset=0x0000000000002550 sizeof_cell=48
GCELL idx=200 base=0x0000000000012d00 addr=0x0000000000015280 offset=0x0000000000002580 sizeof_cell=48
GCELL idx=201 base=0x0000000000012d00 addr=0x00000000000152b0 offset=0x00000000000025b0 sizeof_cell=48
GCELL idx=202 base=0x0000000000012d00 addr=0x00000000000152e0 offset=0x00000000000025e0 sizeof_cell=48
GCELL idx=203 base=0x0000000000012d00 addr=0x0000000000015310 offset=0x0000000000002610 sizeof_cell=48
GCELL idx=204 base=0x0000000000012d00 addr=0x0000000000015340 offset=0x0000000000002640 sizeof_cell=48
GCELL idx=205 base=0x0000000000012d00 addr=0x0000000000015370 offset=0x0000000000002670 sizeof_cell=48
GCELL idx=206 base=0x0000000000012d00 addr=0x00000000000153a0 offset=0x00000000000026a0 sizeof_cell=48
GCELL idx=207 base=0x0000000000012d00 addr=0x00000000000153d0 offset=0x00000000000026d0 sizeof_cell=48
GCELL idx=208 base=0x0000000000012d00 addr=0x0000000000015400 offset=0x0000000000002700 sizeof_cell=48
GCELL idx=209 base=0x0000000000012d00 addr=0x0000000000015430 offset=0x0000000000002730 sizeof_cell=48
GCELL idx=210 base=0x0000000000012d00 addr=0x0000000000015460 offset=0x0000000000002760 sizeof_cell=48
GCELL idx=211 base=0x0000000000012d00 addr=0x0000000000015490 offset=0x0000000000002790 sizeof_cell=48
GCELL idx=212 base=0x0000000000012d00 addr=0x00000000000154c0 offset=0x00000000000027c0 sizeof_cell=48
GCELL idx=213 base=0x0000000000012d00 addr=0x00000000000154f0 offset=0x00000000000027f0 sizeof_cell=48
GCELL idx=214 base=0x0000000000012d00 addr=0x0000000000015520 offset=0x0000000000002820 sizeof_cell=48
GCELL idx=215 base=0x0000000000012d00 addr=0x0000000000015550 offset=0x0000000000002850 sizeof_cell=48
GCELL idx=216 base=0x0000000000012d00 addr=0x0000000000015580 offset=0x0000000000002880 sizeof_cell=48
GCELL idx=217 base=0x0000000000012d00 addr=0x00000000000155b0 offset=0x00000000000028b0 sizeof_cell=48
GCELL idx=218 base=0x0000000000012d00 addr=0x00000000000155e0 offset=0x00000000000028e0 sizeof_cell=48
GCELL idx=219 base=0x0000000000012d00 addr=0x0000000000015610 offset=0x0000000000002910 sizeof_cell=48
GCELL idx=220 base=0x0000000000012d00 addr=0x0000000000015640 offset=0x0000000000002940 sizeof_cell=48
GCELL idx=221 base=0x0000000000012d00 addr=0x0000000000015670 offset=0x0000000000002970 sizeof_cell=48
GCELL idx=222 base=0x0000000000012d00 addr=0x00000000000156a0 offset=0x00000000000029a0 sizeof_cell=48
GCELL idx=223 base=0x0000000000012d00 addr=0x00000000000156d0 offset=0x00000000000029d0 sizeof_cell=48
GCELL idx=224 base=0x0000000000012d00 addr=0x0000000000015700 offset=0x0000000000002a00 sizeof_cell=48
GCELL idx=225 base=0x0000000000012d00 addr=0x0000000000015730 offset=0x0000000000002a30 sizeof_cell=48
GCELL idx=226 base=0x0000000000012d00 addr=0x0000000000015760 offset=0x0000000000002a60 sizeof_cell=48
GCELL idx=227 base=0x0000000000012d00 addr=0x0000000000015790 offset=0x0000000000002a90 sizeof_cell=48
GCELL idx=228 base=0x0000000000012d00 addr=0x00000000000157c0 offset=0x0000000000002ac0 sizeof_cell=48
GCELL idx=229 base=0x0000000000012d00 addr=0x00000000000157f0 offset=0x0000000000002af0 sizeof_cell=48
GCELL idx=230 base=0x0000000000012d00 addr=0x0000000000015820 offset=0x0000000000002b20 sizeof_cell=48
GCELL idx=231 base=0x0000000000012d00 addr=0x0000000000015850 offset=0x0000000000002b50 sizeof_cell=48
GCELL idx=232 base=0x0000000000012d00 addr=0x0000000000015880 offset=0x0000000000002b80 sizeof_cell=48
GCELL idx=233 base=0x0000000000012d00 addr=0x00000000000158b0 offset=0x0000000000002bb0 sizeof_cell=48
GCELL idx=234 base=0x0000000000012d00 addr=0x00000000000158e0 offset=0x0000000000002be0 sizeof_cell=48
GCELL idx=235 base=0x0000000000012d00 addr=0x0000000000015910 offset=0x0000000000002c10 sizeof_cell=48
GCELL idx=236 base=0x0000000000012d00 addr=0x0000000000015940 offset=0x0000000000002c40 sizeof_cell=48
GCELL idx=237 base=0x0000000000012d00 addr=0x0000000000015970 offset=0x0000000000002c70 sizeof_cell=48
GCELL idx=238 base=0x0000000000012d00 addr=0x00000000000159a0 offset=0x0000000000002ca0 sizeof_cell=48
GCELL idx=239 base=0x0000000000012d00 addr=0x00000000000159d0 offset=0x0000000000002cd0 sizeof_cell=48
GCELL idx=240 base=0x0000000000012d00 addr=0x0000000000015a00 offset=0x0000000000002d00 sizeof_cell=48
GCELL idx=241 base=0x0000000000012d00 addr=0x0000000000015a30 offset=0x0000000000002d30 sizeof_cell=48
GCELL idx=242 base=0x0000000000012d00 addr=0x0000000000015a60 offset=0x0000000000002d60 sizeof_cell=48
GCELL idx=243 base=0x0000000000012d00 addr=0x0000000000015a90 offset=0x0000000000002d90 sizeof_cell=48
GCELL idx=244 base=0x0000000000012d00 addr=0x0000000000015ac0 offset=0x0000000000002dc0 sizeof_cell=48
GCELL idx=245 base=0x0000000000012d00 addr=0x0000000000015af0 offset=0x0000000000002df0 sizeof_cell=48
GCELL idx=246 base=0x0000000000012d00 addr=0x0000000000015b20 offset=0x0000000000002e20 sizeof_cell=48
GCELL idx=247 base=0x0000000000012d00 addr=0x0000000000015b50 offset=0x0000000000002e50 sizeof_cell=48
GCELL idx=248 base=0x0000000000012d00 addr=0x0000000000015b80 offset=0x0000000000002e80 sizeof_cell=48
GCELL idx=249 base=0x0000000000012d00 addr=0x0000000000015bb0 offset=0x0000000000002eb0 sizeof_cell=48
GCELL idx=250 base=0x0000000000012d00 addr=0x0000000000015be0 offset=0x0000000000002ee0 sizeof_cell=48
GCELL idx=251 base=0x0000000000012d00 addr=0x0000000000015c10 offset=0x0000000000002f10 sizeof_cell=48
GCELL idx=252 base=0x0000000000012d00 addr=0x0000000000015c40 offset=0x0000000000002f40 sizeof_cell=48
GCELL idx=253 base=0x0000000000012d00 addr=0x0000000000015c70 offset=0x0000000000002f70 sizeof_cell=48
GCELL idx=254 base=0x0000000000012d00 addr=0x0000000000015ca0 offset=0x0000000000002fa0 sizeof_cell=48
GCELL idx=255 base=0x0000000000012d00 addr=0x0000000000015cd0 offset=0x0000000000002fd0 sizeof_cell=48
GCELL idx=256 base=0x0000000000012d00 addr=0x0000000000015d00 offset=0x0000000000003000 sizeof_cell=48
GCELL idx=257 base=0x0000000000012d00 addr=0x0000000000015d30 offset=0x0000000000003030 sizeof_cell=48
GCELL idx=258 base=0x0000000000012d00 addr=0x0000000000015d60 offset=0x0000000000003060 sizeof_cell=48
GCELL idx=259 base=0x0000000000012d00 addr=0x0000000000015d90 offset=0x0000000000003090 sizeof_cell=48
GCELL idx=260 base=0x0000000000012d00 addr=0x0000000000015dc0 offset=0x00000000000030c0 sizeof_cell=48
GCELL idx=261 base=0x0000000000012d00 addr=0x0000000000015df0 offset=0x00000000000030f0 sizeof_cell=48
GCELL idx=262 base=0x0000000000012d00 addr=0x0000000000015e20 offset=0x0000000000003120 sizeof_cell=48
GCELL idx=263 base=0x0000000000012d00 addr=0x0000000000015e50 offset=0x0000000000003150 sizeof_cell=48
GCELL idx=264 base=0x0000000000012d00 addr=0x0000000000015e80 offset=0x0000000000003180 sizeof_cell=48
GCELL idx=265 base=0x0000000000012d00 addr=0x0000000000015eb0 offset=0x00000000000031b0 sizeof_cell=48
GCELL idx=266 base=0x0000000000012d00 addr=0x0000000000015ee0 offset=0x00000000000031e0 sizeof_cell=48
GCELL idx=267 base=0x0000000000012d00 addr=0x0000000000015f10 offset=0x0000000000003210 sizeof_cell=48
GCELL idx=268 base=0x0000000000012d00 addr=0x0000000000015f40 offset=0x0000000000003240 sizeof_cell=48
GCELL idx=269 base=0x0000000000012d00 addr=0x0000000000015f70 offset=0x0000000000003270 sizeof_cell=48
GCELL idx=270 base=0x0000000000012d00 addr=0x0000000000015fa0 offset=0x00000000000032a0 sizeof_cell=48
GCELL idx=271 base=0x0000000000012d00 addr=0x0000000000015fd0 offset=0x00000000000032d0 sizeof_cell=48
GCELL idx=272 base=0x0000000000012d00 addr=0x0000000000016000 offset=0x0000000000003300 sizeof_cell=48
GCELL idx=273 base=0x0000000000012d00 addr=0x0000000000016030 offset=0x0000000000003330 sizeof_cell=48
GCELL idx=274 base=0x0000000000012d00 addr=0x0000000000016060 offset=0x0000000000003360 sizeof_cell=48
GCELL idx=275 base=0x0000000000012d00 addr=0x0000000000016090 offset=0x0000000000003390 sizeof_cell=48
GCELL idx=276 base=0x0000000000012d00 addr=0x00000000000160c0 offset=0x00000000000033c0 sizeof_cell=48
GCELL idx=277 base=0x0000000000012d00 addr=0x00000000000160f0 offset=0x00000000000033f0 sizeof_cell=48
GCELL idx=278 base=0x0000000000012d00 addr=0x0000000000016120 offset=0x0000000000003420 sizeof_cell=48
GCELL idx=279 base=0x0000000000012d00 addr=0x0000000000016150 offset=0x0000000000003450 sizeof_cell=48
GCELL idx=280 base=0x0000000000012d00 addr=0x0000000000016180 offset=0x0000000000003480 sizeof_cell=48
GCELL idx=281 base=0x0000000000012d00 addr=0x00000000000161b0 offset=0x00000000000034b0 sizeof_cell=48
GCELL idx=282 base=0x0000000000012d00 addr=0x00000000000161e0 offset=0x00000000000034e0 sizeof_cell=48
GCELL idx=283 base=0x0000000000012d00 addr=0x0000000000016210 offset=0x0000000000003510 sizeof_cell=48
GCELL idx=284 base=0x0000000000012d00 addr=0x0000000000016240 offset=0x0000000000003540 sizeof_cell=48
GCELL idx=285 base=0x0000000000012d00 addr=0x0000000000016270 offset=0x0000000000003570 sizeof_cell=48
GCELL idx=286 base=0x0000000000012d00 addr=0x00000000000162a0 offset=0x00000000000035a0 sizeof_cell=48
GCELL idx=287 base=0x0000000000012d00 addr=0x00000000000162d0 offset=0x00000000000035d0 sizeof_cell=48
GCELL idx=288 base=0x0000000000012d00 addr=0x0000000000016300 offset=0x0000000000003600 sizeof_cell=48
GCELL idx=289 base=0x0000000000012d00 addr=0x0000000000016330 offset=0x0000000000003630 sizeof_cell=48
GCELL idx=290 base=0x0000000000012d00 addr=0x0000000000016360 offset=0x0000000000003660 sizeof_cell=48
GCELL idx=291 base=0x0000000000012d00 addr=0x0000000000016390 offset=0x0000000000003690 sizeof_cell=48
GCELL idx=292 base=0x0000000000012d00 addr=0x00000000000163c0 offset=0x00000000000036c0 sizeof_cell=48
GCELL idx=293 base=0x0000000000012d00 addr=0x00000000000163f0 offset=0x00000000000036f0 sizeof_cell=48
GCELL idx=294 base=0x0000000000012d00 addr=0x0000000000016420 offset=0x0000000000003720 sizeof_cell=48
GCELL idx=295 base=0x0000000000012d00 addr=0x0000000000016450 offset=0x0000000000003750 sizeof_cell=48
GCELL idx=296 base=0x0000000000012d00 addr=0x0000000000016480 offset=0x0000000000003780 sizeof_cell=48
GCELL idx=297 base=0x0000000000012d00 addr=0x00000000000164b0 offset=0x00000000000037b0 sizeof_cell=48
GCELL idx=298 base=0x0000000000012d00 addr=0x00000000000164e0 offset=0x00000000000037e0 sizeof_cell=48
GCELL idx=299 base=0x0000000000012d00 addr=0x0000000000016510 offset=0x0000000000003810 sizeof_cell=48
GCELL idx=300 base=0x0000000000012d00 addr=0x0000000000016540 offset=0x0000000000003840 sizeof_cell=48
GCELL idx=301 base=0x0000000000012d00 addr=0x0000000000016570 offset=0x0000000000003870 sizeof_cell=48
GCELL idx=302 base=0x0000000000012d00 addr=0x00000000000165a0 offset=0x00000000000038a0 sizeof_cell=48
GCELL idx=303 base=0x0000000000012d00 addr=0x00000000000165d0 offset=0x00000000000038d0 sizeof_cell=48
GCELL idx=304 base=0x0000000000012d00 addr=0x0000000000016600 offset=0x0000000000003900 sizeof_cell=48
GCELL idx=305 base=0x0000000000012d00 addr=0x0000000000016630 offset=0x0000000000003930 sizeof_cell=48
GCELL idx=306 base=0x0000000000012d00 addr=0x0000000000016660 offset=0x0000000000003960 sizeof_cell=48
GCELL idx=307 base=0x0000000000012d00 addr=0x0000000000016690 offset=0x0000000000003990 sizeof_cell=48
GCELL idx=308 base=0x0000000000012d00 addr=0x00000000000166c0 offset=0x00000000000039c0 sizeof_cell=48
GCELL idx=309 base=0x0000000000012d00 addr=0x00000000000166f0 offset=0x00000000000039f0 sizeof_cell=48
GCELL idx=310 base=0x0000000000012d00 addr=0x0000000000016720 offset=0x0000000000003a20 sizeof_cell=48
GCELL idx=311 base=0x0000000000012d00 addr=0x0000000000016750 offset=0x0000000000003a50 sizeof_cell=48
GCELL idx=312 base=0x0000000000012d00 addr=0x0000000000016780 offset=0x0000000000003a80 sizeof_cell=48
GCELL idx=313 base=0x0000000000012d00 addr=0x00000000000167b0 offset=0x0000000000003ab0 sizeof_cell=48
GCELL idx=314 base=0x0000000000012d00 addr=0x00000000000167e0 offset=0x0000000000003ae0 sizeof_cell=48
GCELL idx=315 base=0x0000000000012d00 addr=0x0000000000016810 offset=0x0000000000003b10 sizeof_cell=48
GCELL idx=316 base=0x0000000000012d00 addr=0x0000000000016840 offset=0x0000000000003b40 sizeof_cell=48
GCELL idx=317 base=0x0000000000012d00 addr=0x0000000000016870 offset=0x0000000000003b70 sizeof_cell=48
GCELL idx=318 base=0x0000000000012d00 addr=0x00000000000168a0 offset=0x0000000000003ba0 sizeof_cell=48
GCELL idx=319 base=0x0000000000012d00 addr=0x00000000000168d0 offset=0x0000000000003bd0 sizeof_cell=48
GCELL idx=320 base=0x0000000000012d00 addr=0x0000000000016900 offset=0x0000000000003c00 sizeof_cell=48
GCELL idx=321 base=0x0000000000012d00 addr=0x0000000000016930 offset=0x0000000000003c30 sizeof_cell=48
GCELL idx=322 base=0x0000000000012d00 addr=0x0000000000016960 offset=0x0000000000003c60 sizeof_cell=48
GCELL idx=323 base=0x0000000000012d00 addr=0x0000000000016990 offset=0x0000000000003c90 sizeof_cell=48
GCELL idx=324 base=0x0000000000012d00 addr=0x00000000000169c0 offset=0x0000000000003cc0 sizeof_cell=48
GCELL idx=325 base=0x0000000000012d00 addr=0x00000000000169f0 offset=0x0000000000003cf0 sizeof_cell=48
GCELL idx=326 base=0x0000000000012d00 addr=0x0000000000016a20 offset=0x0000000000003d20 sizeof_cell=48
GCELL idx=327 base=0x0000000000012d00 addr=0x0000000000016a50 offset=0x0000000000003d50 sizeof_cell=48
GCELL idx=328 base=0x0000000000012d00 addr=0x0000000000016a80 offset=0x0000000000003d80 sizeof_cell=48
GCELL idx=329 base=0x0000000000012d00 addr=0x0000000000016ab0 offset=0x0000000000003db0 sizeof_cell=48
GCELL idx=330 base=0x0000000000012d00 addr=0x0000000000016ae0 offset=0x0000000000003de0 sizeof_cell=48
GCELL idx=331 base=0x0000000000012d00 addr=0x0000000000016b10 offset=0x0000000000003e10 sizeof_cell=48
GCELL idx=332 base=0x0000000000012d00 addr=0x0000000000016b40 offset=0x0000000000003e40 sizeof_cell=48
GCELL idx=333 base=0x0000000000012d00 addr=0x0000000000016b70 offset=0x0000000000003e70 sizeof_cell=48
GCELL idx=334 base=0x0000000000012d00 addr=0x0000000000016ba0 offset=0x0000000000003ea0 sizeof_cell=48
GCELL idx=335 base=0x0000000000012d00 addr=0x0000000000016bd0 offset=0x0000000000003ed0 sizeof_cell=48
GCELL idx=336 base=0x0000000000012d00 addr=0x0000000000016c00 offset=0x0000000000003f00 sizeof_cell=48
GCELL idx=337 base=0x0000000000012d00 addr=0x0000000000016c30 offset=0x0000000000003f30 sizeof_cell=48
GCELL idx=338 base=0x0000000000012d00 addr=0x0000000000016c60 offset=0x0000000000003f60 sizeof_cell=48
GCELL idx=339 base=0x0000000000012d00 addr=0x0000000000016c90 offset=0x0000000000003f90 sizeof_cell=48
GCELL idx=340 base=0x0000000000012d00 addr=0x0000000000016cc0 offset=0x0000000000003fc0 sizeof_cell=48
GCELL idx=341 base=0x0000000000012d00 addr=0x0000000000016cf0 offset=0x0000000000003ff0 sizeof_cell=48
GCELL idx=342 base=0x0000000000012d00 addr=0x0000000000016d20 offset=0x0000000000004020 sizeof_cell=48
GCELL idx=343 base=0x0000000000012d00 addr=0x0000000000016d50 offset=0x0000000000004050 sizeof_cell=48
GCELL idx=344 base=0x0000000000012d00 addr=0x0000000000016d80 offset=0x0000000000004080 sizeof_cell=48
GCELL idx=345 base=0x0000000000012d00 addr=0x0000000000016db0 offset=0x00000000000040b0 sizeof_cell=48
GCELL idx=346 base=0x0000000000012d00 addr=0x0000000000016de0 offset=0x00000000000040e0 sizeof_cell=48
GCELL idx=347 base=0x0000000000012d00 addr=0x0000000000016e10 offset=0x0000000000004110 sizeof_cell=48
GCELL idx=348 base=0x0000000000012d00 addr=0x0000000000016e40 offset=0x0000000000004140 sizeof_cell=48
GCELL idx=349 base=0x0000000000012d00 addr=0x0000000000016e70 offset=0x0000000000004170 sizeof_cell=48
GCELL idx=350 base=0x0000000000012d00 addr=0x0000000000016ea0 offset=0x00000000000041a0 sizeof_cell=48
GCELL idx=351 base=0x0000000000012d00 addr=0x0000000000016ed0 offset=0x00000000000041d0 sizeof_cell=48
GCELL idx=352 base=0x0000000000012d00 addr=0x0000000000016f00 offset=0x0000000000004200 sizeof_cell=48
GCELL idx=353 base=0x0000000000012d00 addr=0x0000000000016f30 offset=0x0000000000004230 sizeof_cell=48
GCELL idx=354 base=0x0000000000012d00 addr=0x0000000000016f60 offset=0x0000000000004260 sizeof_cell=48
GCELL idx=355 base=0x0000000000012d00 addr=0x0000000000016f90 offset=0x0000000000004290 sizeof_cell=48
GCELL idx=356 base=0x0000000000012d00 addr=0x0000000000016fc0 offset=0x00000000000042c0 sizeof_cell=48
GCELL idx=357 base=0x0000000000012d00 addr=0x0000000000016ff0 offset=0x00000000000042f0 sizeof_cell=48
GCELL idx=358 base=0x0000000000012d00 addr=0x0000000000017020 offset=0x0000000000004320 sizeof_cell=48
GCELL idx=359 base=0x0000000000012d00 addr=0x0000000000017050 offset=0x0000000000004350 sizeof_cell=48
GCELL idx=360 base=0x0000000000012d00 addr=0x0000000000017080 offset=0x0000000000004380 sizeof_cell=48
GCELL idx=361 base=0x0000000000012d00 addr=0x00000000000170b0 offset=0x00000000000043b0 sizeof_cell=48
GCELL idx=362 base=0x0000000000012d00 addr=0x00000000000170e0 offset=0x00000000000043e0 sizeof_cell=48
GCELL idx=363 base=0x0000000000012d00 addr=0x0000000000017110 offset=0x0000000000004410 sizeof_cell=48
GCELL idx=364 base=0x0000000000012d00 addr=0x0000000000017140 offset=0x0000000000004440 sizeof_cell=48
GCELL idx=365 base=0x0000000000012d00 addr=0x0000000000017170 offset=0x0000000000004470 sizeof_cell=48
GCELL idx=366 base=0x0000000000012d00 addr=0x00000000000171a0 offset=0x00000000000044a0 sizeof_cell=48
GCELL idx=367 base=0x0000000000012d00 addr=0x00000000000171d0 offset=0x00000000000044d0 sizeof_cell=48
GCELL idx=368 base=0x0000000000012d00 addr=0x0000000000017200 offset=0x0000000000004500 sizeof_cell=48
GCELL idx=369 base=0x0000000000012d00 addr=0x0000000000017230 offset=0x0000000000004530 sizeof_cell=48
GCELL idx=370 base=0x0000000000012d00 addr=0x0000000000017260 offset=0x0000000000004560 sizeof_cell=48
GCELL idx=371 base=0x0000000000012d00 addr=0x0000000000017290 offset=0x0000000000004590 sizeof_cell=48
GCELL idx=372 base=0x0000000000012d00 addr=0x00000000000172c0 offset=0x00000000000045c0 sizeof_cell=48
GCELL idx=373 base=0x0000000000012d00 addr=0x00000000000172f0 offset=0x00000000000045f0 sizeof_cell=48
GCELL idx=374 base=0x0000000000012d00 addr=0x0000000000017320 offset=0x0000000000004620 sizeof_cell=48
GCELL idx=375 base=0x0000000000012d00 addr=0x0000000000017350 offset=0x0000000000004650 sizeof_cell=48
GCELL idx=376 base=0x0000000000012d00 addr=0x0000000000017380 offset=0x0000000000004680 sizeof_cell=48
GCELL idx=377 base=0x0000000000012d00 addr=0x00000000000173b0 offset=0x00000000000046b0 sizeof_cell=48
GCELL idx=378 base=0x0000000000012d00 addr=0x00000000000173e0 offset=0x00000000000046e0 sizeof_cell=48
GCELL idx=379 base=0x0000000000012d00 addr=0x0000000000017410 offset=0x0000000000004710 sizeof_cell=48
GCELL idx=380 base=0x0000000000012d00 addr=0x0000000000017440 offset=0x0000000000004740 sizeof_cell=48
GCELL idx=381 base=0x0000000000012d00 addr=0x0000000000017470 offset=0x0000000000004770 sizeof_cell=48
GCELL idx=382 base=0x0000000000012d00 addr=0x00000000000174a0 offset=0x00000000000047a0 sizeof_cell=48
GCELL idx=383 base=0x0000000000012d00 addr=0x00000000000174d0 offset=0x00000000000047d0 sizeof_cell=48
GCELL idx=384 base=0x0000000000012d00 addr=0x0000000000017500 offset=0x0000000000004800 sizeof_cell=48
GCELL idx=385 base=0x0000000000012d00 addr=0x0000000000017530 offset=0x0000000000004830 sizeof_cell=48
GCELL idx=386 base=0x0000000000012d00 addr=0x0000000000017560 offset=0x0000000000004860 sizeof_cell=48
GCELL idx=387 base=0x0000000000012d00 addr=0x0000000000017590 offset=0x0000000000004890 sizeof_cell=48
GCELL idx=388 base=0x0000000000012d00 addr=0x00000000000175c0 offset=0x00000000000048c0 sizeof_cell=48
GCELL idx=389 base=0x0000000000012d00 addr=0x00000000000175f0 offset=0x00000000000048f0 sizeof_cell=48
GCELL idx=390 base=0x0000000000012d00 addr=0x0000000000017620 offset=0x0000000000004920 sizeof_cell=48
GCELL idx=391 base=0x0000000000012d00 addr=0x0000000000017650 offset=0x0000000000004950 sizeof_cell=48
GCELL idx=392 base=0x0000000000012d00 addr=0x0000000000017680 offset=0x0000000000004980 sizeof_cell=48
GCELL idx=393 base=0x0000000000012d00 addr=0x00000000000176b0 offset=0x00000000000049b0 sizeof_cell=48
GCELL idx=394 base=0x0000000000012d00 addr=0x00000000000176e0 offset=0x00000000000049e0 sizeof_cell=48
GCELL idx=395 base=0x0000000000012d00 addr=0x0000000000017710 offset=0x0000000000004a10 sizeof_cell=48
GCELL idx=396 base=0x0000000000012d00 addr=0x0000000000017740 offset=0x0000000000004a40 sizeof_cell=48
GCELL idx=397 base=0x0000000000012d00 addr=0x0000000000017770 offset=0x0000000000004a70 sizeof_cell=48
GCELL idx=398 base=0x0000000000012d00 addr=0x00000000000177a0 offset=0x0000000000004aa0 sizeof_cell=48
GCELL idx=399 base=0x0000000000012d00 addr=0x00000000000177d0 offset=0x0000000000004ad0 sizeof_cell=48
GCELL idx=400 base=0x0000000000012d00 addr=0x0000000000017800 offset=0x0000000000004b00 sizeof_cell=48
GCELL idx=401 base=0x0000000000012d00 addr=0x0000000000017830 offset=0x0000000000004b30 sizeof_cell=48
GCELL idx=402 base=0x0000000000012d00 addr=0x0000000000017860 offset=0x0000000000004b60 sizeof_cell=48
GCELL idx=403 base=0x0000000000012d00 addr=0x0000000000017890 offset=0x0000000000004b90 sizeof_cell=48
GCELL idx=404 base=0x0000000000012d00 addr=0x00000000000178c0 offset=0x0000000000004bc0 sizeof_cell=48
GCELL idx=405 base=0x0000000000012d00 addr=0x00000000000178f0 offset=0x0000000000004bf0 sizeof_cell=48
GCELL idx=406 base=0x0000000000012d00 addr=0x0000000000017920 offset=0x0000000000004c20 sizeof_cell=48
GCELL idx=407 base=0x0000000000012d00 addr=0x0000000000017950 offset=0x0000000000004c50 sizeof_cell=48
GCELL idx=408 base=0x0000000000012d00 addr=0x0000000000017980 offset=0x0000000000004c80 sizeof_cell=48
GCELL idx=409 base=0x0000000000012d00 addr=0x00000000000179b0 offset=0x0000000000004cb0 sizeof_cell=48
GCELL idx=410 base=0x0000000000012d00 addr=0x00000000000179e0 offset=0x0000000000004ce0 sizeof_cell=48
GCELL idx=411 base=0x0000000000012d00 addr=0x0000000000017a10 offset=0x0000000000004d10 sizeof_cell=48
GCELL idx=412 base=0x0000000000012d00 addr=0x0000000000017a40 offset=0x0000000000004d40 sizeof_cell=48
GCELL idx=413 base=0x0000000000012d00 addr=0x0000000000017a70 offset=0x0000000000004d70 sizeof_cell=48
GCELL idx=414 base=0x0000000000012d00 addr=0x0000000000017aa0 offset=0x0000000000004da0 sizeof_cell=48
GCELL idx=415 base=0x0000000000012d00 addr=0x0000000000017ad0 offset=0x0000000000004dd0 sizeof_cell=48
GCELL idx=416 base=0x0000000000012d00 addr=0x0000000000017b00 offset=0x0000000000004e00 sizeof_cell=48
GCELL idx=417 base=0x0000000000012d00 addr=0x0000000000017b30 offset=0x0000000000004e30 sizeof_cell=48
GCELL idx=418 base=0x0000000000012d00 addr=0x0000000000017b60 offset=0x0000000000004e60 sizeof_cell=48
GCELL idx=419 base=0x0000000000012d00 addr=0x0000000000017b90 offset=0x0000000000004e90 sizeof_cell=48
GCELL idx=420 base=0x0000000000012d00 addr=0x0000000000017bc0 offset=0x0000000000004ec0 sizeof_cell=48
GCELL idx=421 base=0x0000000000012d00 addr=0x0000000000017bf0 offset=0x0000000000004ef0 sizeof_cell=48
GCELL idx=422 base=0x0000000000012d00 addr=0x0000000000017c20 offset=0x0000000000004f20 sizeof_cell=48
GCELL idx=423 base=0x0000000000012d00 addr=0x0000000000017c50 offset=0x0000000000004f50 sizeof_cell=48
GCELL idx=424 base=0x0000000000012d00 addr=0x0000000000017c80 offset=0x0000000000004f80 sizeof_cell=48
GCELL idx=425 base=0x0000000000012d00 addr=0x0000000000017cb0 offset=0x0000000000004fb0 sizeof_cell=48
GCELL idx=426 base=0x0000000000012d00 addr=0x0000000000017ce0 offset=0x0000000000004fe0 sizeof_cell=48
GCELL idx=427 base=0x0000000000012d00 addr=0x0000000000017d10 offset=0x0000000000005010 sizeof_cell=48
GCELL idx=428 base=0x0000000000012d00 addr=0x0000000000017d40 offset=0x0000000000005040 sizeof_cell=48
GCELL idx=429 base=0x0000000000012d00 addr=0x0000000000017d70 offset=0x0000000000005070 sizeof_cell=48
GCELL idx=430 base=0x0000000000012d00 addr=0x0000000000017da0 offset=0x00000000000050a0 sizeof_cell=48
GCELL idx=431 base=0x0000000000012d00 addr=0x0000000000017dd0 offset=0x00000000000050d0 sizeof_cell=48
GCELL idx=432 base=0x0000000000012d00 addr=0x0000000000017e00 offset=0x0000000000005100 sizeof_cell=48
GCELL idx=433 base=0x0000000000012d00 addr=0x0000000000017e30 offset=0x0000000000005130 sizeof_cell=48
GCELL idx=434 base=0x0000000000012d00 addr=0x0000000000017e60 offset=0x0000000000005160 sizeof_cell=48
GCELL idx=435 base=0x0000000000012d00 addr=0x0000000000017e90 offset=0x0000000000005190 sizeof_cell=48
GCELL idx=436 base=0x0000000000012d00 addr=0x0000000000017ec0 offset=0x00000000000051c0 sizeof_cell=48
GCELL idx=437 base=0x0000000000012d00 addr=0x0000000000017ef0 offset=0x00000000000051f0 sizeof_cell=48
GCELL idx=438 base=0x0000000000012d00 addr=0x0000000000017f20 offset=0x0000000000005220 sizeof_cell=48
GCELL idx=439 base=0x0000000000012d00 addr=0x0000000000017f50 offset=0x0000000000005250 sizeof_cell=48
GCELL idx=440 base=0x0000000000012d00 addr=0x0000000000017f80 offset=0x0000000000005280 sizeof_cell=48
GCELL idx=441 base=0x0000000000012d00 addr=0x0000000000017fb0 offset=0x00000000000052b0 sizeof_cell=48
GCELL idx=442 base=0x0000000000012d00 addr=0x0000000000017fe0 offset=0x00000000000052e0 sizeof_cell=48
GCELL idx=443 base=0x0000000000012d00 addr=0x0000000000018010 offset=0x0000000000005310 sizeof_cell=48
GCELL idx=444 base=0x0000000000012d00 addr=0x0000000000018040 offset=0x0000000000005340 sizeof_cell=48
GCELL idx=445 base=0x0000000000012d00 addr=0x0000000000018070 offset=0x0000000000005370 sizeof_cell=48
GCELL idx=446 base=0x0000000000012d00 addr=0x00000000000180a0 offset=0x00000000000053a0 sizeof_cell=48
GCELL idx=447 base=0x0000000000012d00 addr=0x00000000000180d0 offset=0x00000000000053d0 sizeof_cell=48
GCELL idx=448 base=0x0000000000012d00 addr=0x0000000000018100 offset=0x0000000000005400 sizeof_cell=48
GCELL idx=449 base=0x0000000000012d00 addr=0x0000000000018130 offset=0x0000000000005430 sizeof_cell=48
GCELL idx=450 base=0x0000000000012d00 addr=0x0000000000018160 offset=0x0000000000005460 sizeof_cell=48
GCELL idx=451 base=0x0000000000012d00 addr=0x0000000000018190 offset=0x0000000000005490 sizeof_cell=48
GCELL idx=452 base=0x0000000000012d00 addr=0x00000000000181c0 offset=0x00000000000054c0 sizeof_cell=48
GCELL idx=453 base=0x0000000000012d00 addr=0x00000000000181f0 offset=0x00000000000054f0 sizeof_cell=48
GCELL idx=454 base=0x0000000000012d00 addr=0x0000000000018220 offset=0x0000000000005520 sizeof_cell=48
GCELL idx=455 base=0x0000000000012d00 addr=0x0000000000018250 offset=0x0000000000005550 sizeof_cell=48
GCELL idx=456 base=0x0000000000012d00 addr=0x0000000000018280 offset=0x0000000000005580 sizeof_cell=48
GCELL idx=457 base=0x0000000000012d00 addr=0x00000000000182b0 offset=0x00000000000055b0 sizeof_cell=48
GCELL idx=458 base=0x0000000000012d00 addr=0x00000000000182e0 offset=0x00000000000055e0 sizeof_cell=48
GCELL idx=459 base=0x0000000000012d00 addr=0x0000000000018310 offset=0x0000000000005610 sizeof_cell=48
GCELL idx=460 base=0x0000000000012d00 addr=0x0000000000018340 offset=0x0000000000005640 sizeof_cell=48
GCELL idx=461 base=0x0000000000012d00 addr=0x0000000000018370 offset=0x0000000000005670 sizeof_cell=48
GCELL idx=462 base=0x0000000000012d00 addr=0x00000000000183a0 offset=0x00000000000056a0 sizeof_cell=48
GCELL idx=463 base=0x0000000000012d00 addr=0x00000000000183d0 offset=0x00000000000056d0 sizeof_cell=48
GCELL idx=464 base=0x0000000000012d00 addr=0x0000000000018400 offset=0x0000000000005700 sizeof_cell=48
GCELL idx=465 base=0x0000000000012d00 addr=0x0000000000018430 offset=0x0000000000005730 sizeof_cell=48
GCELL idx=466 base=0x0000000000012d00 addr=0x0000000000018460 offset=0x0000000000005760 sizeof_cell=48
GCELL idx=467 base=0x0000000000012d00 addr=0x0000000000018490 offset=0x0000000000005790 sizeof_cell=48
GCELL idx=468 base=0x0000000000012d00 addr=0x00000000000184c0 offset=0x00000000000057c0 sizeof_cell=48
GCELL idx=469 base=0x0000000000012d00 addr=0x00000000000184f0 offset=0x00000000000057f0 sizeof_cell=48
GCELL idx=470 base=0x0000000000012d00 addr=0x0000000000018520 offset=0x0000000000005820 sizeof_cell=48
GCELL idx=471 base=0x0000000000012d00 addr=0x0000000000018550 offset=0x0000000000005850 sizeof_cell=48
GCELL idx=472 base=0x0000000000012d00 addr=0x0000000000018580 offset=0x0000000000005880 sizeof_cell=48
GCELL idx=473 base=0x0000000000012d00 addr=0x00000000000185b0 offset=0x00000000000058b0 sizeof_cell=48
GCELL idx=474 base=0x0000000000012d00 addr=0x00000000000185e0 offset=0x00000000000058e0 sizeof_cell=48
GCELL idx=475 base=0x0000000000012d00 addr=0x0000000000018610 offset=0x0000000000005910 sizeof_cell=48
GCELL idx=476 base=0x0000000000012d00 addr=0x0000000000018640 offset=0x0000000000005940 sizeof_cell=48
GCELL idx=477 base=0x0000000000012d00 addr=0x0000000000018670 offset=0x0000000000005970 sizeof_cell=48
GCELL idx=478 base=0x0000000000012d00 addr=0x00000000000186a0 offset=0x00000000000059a0 sizeof_cell=48
GCELL idx=479 base=0x0000000000012d00 addr=0x00000000000186d0 offset=0x00000000000059d0 sizeof_cell=48
GCELL idx=480 base=0x0000000000012d00 addr=0x0000000000018700 offset=0x0000000000005a00 sizeof_cell=48
GCELL idx=481 base=0x0000000000012d00 addr=0x0000000000018730 offset=0x0000000000005a30 sizeof_cell=48
GCELL idx=482 base=0x0000000000012d00 addr=0x0000000000018760 offset=0x0000000000005a60 sizeof_cell=48
GCELL idx=483 base=0x0000000000012d00 addr=0x0000000000018790 offset=0x0000000000005a90 sizeof_cell=48
GCELL idx=484 base=0x0000000000012d00 addr=0x00000000000187c0 offset=0x0000000000005ac0 sizeof_cell=48
GCELL idx=485 base=0x0000000000012d00 addr=0x00000000000187f0 offset=0x0000000000005af0 sizeof_cell=48
GCELL idx=486 base=0x0000000000012d00 addr=0x0000000000018820 offset=0x0000000000005b20 sizeof_cell=48
GCELL idx=487 base=0x0000000000012d00 addr=0x0000000000018850 offset=0x0000000000005b50 sizeof_cell=48
GCELL idx=488 base=0x0000000000012d00 addr=0x0000000000018880 offset=0x0000000000005b80 sizeof_cell=48
GCELL idx=489 base=0x0000000000012d00 addr=0x00000000000188b0 offset=0x0000000000005bb0 sizeof_cell=48
GCELL idx=490 base=0x0000000000012d00 addr=0x00000000000188e0 offset=0x0000000000005be0 sizeof_cell=48
GCELL idx=491 base=0x0000000000012d00 addr=0x0000000000018910 offset=0x0000000000005c10 sizeof_cell=48
GCELL idx=492 base=0x0000000000012d00 addr=0x0000000000018940 offset=0x0000000000005c40 sizeof_cell=48
GCELL idx=493 base=0x0000000000012d00 addr=0x0000000000018970 offset=0x0000000000005c70 sizeof_cell=48
GCELL idx=494 base=0x0000000000012d00 addr=0x00000000000189a0 offset=0x0000000000005ca0 sizeof_cell=48
GCELL idx=495 base=0x0000000000012d00 addr=0x00000000000189d0 offset=0x0000000000005cd0 sizeof_cell=48
GCELL idx=496 base=0x0000000000012d00 addr=0x0000000000018a00 offset=0x0000000000005d00 sizeof_cell=48
GCELL idx=497 base=0x0000000000012d00 addr=0x0000000000018a30 offset=0x0000000000005d30 sizeof_cell=48
GCELL idx=498 base=0x0000000000012d00 addr=0x0000000000018a60 offset=0x0000000000005d60 sizeof_cell=48
GCELL idx=499 base=0x0000000000012d00 addr=0x0000000000018a90 offset=0x0000000000005d90 sizeof_cell=48
GCELL idx=500 base=0x0000000000012d00 addr=0x0000000000018ac0 offset=0x0000000000005dc0 sizeof_cell=48
GCELL idx=501 base=0x0000000000012d00 addr=0x0000000000018af0 offset=0x0000000000005df0 sizeof_cell=48
GCELL idx=502 base=0x0000000000012d00 addr=0x0000000000018b20 offset=0x0000000000005e20 sizeof_cell=48
GCELL idx=503 base=0x0000000000012d00 addr=0x0000000000018b50 offset=0x0000000000005e50 sizeof_cell=48
GCELL idx=504 base=0x0000000000012d00 addr=0x0000000000018b80 offset=0x0000000000005e80 sizeof_cell=48
GCELL idx=505 base=0x0000000000012d00 addr=0x0000000000018bb0 offset=0x0000000000005eb0 sizeof_cell=48
GCELL idx=506 base=0x0000000000012d00 addr=0x0000000000018be0 offset=0x0000000000005ee0 sizeof_cell=48
GCELL idx=507 base=0x0000000000012d00 addr=0x0000000000018c10 offset=0x0000000000005f10 sizeof_cell=48
GCELL idx=508 base=0x0000000000012d00 addr=0x0000000000018c40 offset=0x0000000000005f40 sizeof_cell=48
GCELL idx=509 base=0x0000000000012d00 addr=0x0000000000018c70 offset=0x0000000000005f70 sizeof_cell=48
GCELL idx=510 base=0x0000000000012d00 addr=0x0000000000018ca0 offset=0x0000000000005fa0 sizeof_cell=48
GCELL idx=511 base=0x0000000000012d00 addr=0x0000000000018cd0 offset=0x0000000000005fd0 sizeof_cell=48
GCELL idx=512 base=0x0000000000012d00 addr=0x0000000000018d00 offset=0x0000000000006000 sizeof_cell=48
GCELL idx=513 base=0x0000000000012d00 addr=0x0000000000018d30 offset=0x0000000000006030 sizeof_cell=48
GCELL idx=514 base=0x0000000000012d00 addr=0x0000000000018d60 offset=0x0000000000006060 sizeof_cell=48
GCELL idx=515 base=0x0000000000012d00 addr=0x0000000000018d90 offset=0x0000000000006090 sizeof_cell=48
GCELL idx=516 base=0x0000000000012d00 addr=0x0000000000018dc0 offset=0x00000000000060c0 sizeof_cell=48
GCELL idx=517 base=0x0000000000012d00 addr=0x0000000000018df0 offset=0x00000000000060f0 sizeof_cell=48
GCELL idx=518 base=0x0000000000012d00 addr=0x0000000000018e20 offset=0x0000000000006120 sizeof_cell=48
GCELL idx=519 base=0x0000000000012d00 addr=0x0000000000018e50 offset=0x0000000000006150 sizeof_cell=48
GCELL idx=520 base=0x0000000000012d00 addr=0x0000000000018e80 offset=0x0000000000006180 sizeof_cell=48
GCELL idx=521 base=0x0000000000012d00 addr=0x0000000000018eb0 offset=0x00000000000061b0 sizeof_cell=48
GCELL idx=522 base=0x0000000000012d00 addr=0x0000000000018ee0 offset=0x00000000000061e0 sizeof_cell=48
GCELL idx=523 base=0x0000000000012d00 addr=0x0000000000018f10 offset=0x0000000000006210 sizeof_cell=48
GCELL idx=524 base=0x0000000000012d00 addr=0x0000000000018f40 offset=0x0000000000006240 sizeof_cell=48
GCELL idx=525 base=0x0000000000012d00 addr=0x0000000000018f70 offset=0x0000000000006270 sizeof_cell=48
GCELL idx=526 base=0x0000000000012d00 addr=0x0000000000018fa0 offset=0x00000000000062a0 sizeof_cell=48
GCELL idx=527 base=0x0000000000012d00 addr=0x0000000000018fd0 offset=0x00000000000062d0 sizeof_cell=48
GCELL idx=528 base=0x0000000000012d00 addr=0x0000000000019000 offset=0x0000000000006300 sizeof_cell=48
GCELL idx=529 base=0x0000000000012d00 addr=0x0000000000019030 offset=0x0000000000006330 sizeof_cell=48
GCELL idx=530 base=0x0000000000012d00 addr=0x0000000000019060 offset=0x0000000000006360 sizeof_cell=48
GCELL idx=531 base=0x0000000000012d00 addr=0x0000000000019090 offset=0x0000000000006390 sizeof_cell=48
GCELL idx=532 base=0x0000000000012d00 addr=0x00000000000190c0 offset=0x00000000000063c0 sizeof_cell=48
GCELL idx=533 base=0x0000000000012d00 addr=0x00000000000190f0 offset=0x00000000000063f0 sizeof_cell=48
GCELL idx=534 base=0x0000000000012d00 addr=0x0000000000019120 offset=0x0000000000006420 sizeof_cell=48
GCELL idx=535 base=0x0000000000012d00 addr=0x0000000000019150 offset=0x0000000000006450 sizeof_cell=48
GCELL idx=536 base=0x0000000000012d00 addr=0x0000000000019180 offset=0x0000000000006480 sizeof_cell=48
GCELL idx=537 base=0x0000000000012d00 addr=0x00000000000191b0 offset=0x00000000000064b0 sizeof_cell=48
GCELL idx=538 base=0x0000000000012d00 addr=0x00000000000191e0 offset=0x00000000000064e0 sizeof_cell=48
GCELL idx=539 base=0x0000000000012d00 addr=0x0000000000019210 offset=0x0000000000006510 sizeof_cell=48
GCELL idx=540 base=0x0000000000012d00 addr=0x0000000000019240 offset=0x0000000000006540 sizeof_cell=48
GCELL idx=541 base=0x0000000000012d00 addr=0x0000000000019270 offset=0x0000000000006570 sizeof_cell=48
GCELL idx=542 base=0x0000000000012d00 addr=0x00000000000192a0 offset=0x00000000000065a0 sizeof_cell=48
GCELL idx=543 base=0x0000000000012d00 addr=0x00000000000192d0 offset=0x00000000000065d0 sizeof_cell=48
GCELL idx=544 base=0x0000000000012d00 addr=0x0000000000019300 offset=0x0000000000006600 sizeof_cell=48
GCELL idx=545 base=0x0000000000012d00 addr=0x0000000000019330 offset=0x0000000000006630 sizeof_cell=48
GCELL idx=546 base=0x0000000000012d00 addr=0x0000000000019360 offset=0x0000000000006660 sizeof_cell=48
GCELL idx=547 base=0x0000000000012d00 addr=0x0000000000019390 offset=0x0000000000006690 sizeof_cell=48
GCELL idx=548 base=0x0000000000012d00 addr=0x00000000000193c0 offset=0x00000000000066c0 sizeof_cell=48
GCELL idx=549 base=0x0000000000012d00 addr=0x00000000000193f0 offset=0x00000000000066f0 sizeof_cell=48
GCELL idx=550 base=0x0000000000012d00 addr=0x0000000000019420 offset=0x0000000000006720 sizeof_cell=48
GCELL idx=551 base=0x0000000000012d00 addr=0x0000000000019450 offset=0x0000000000006750 sizeof_cell=48
GCELL idx=552 base=0x0000000000012d00 addr=0x0000000000019480 offset=0x0000000000006780 sizeof_cell=48
GCELL idx=553 base=0x0000000000012d00 addr=0x00000000000194b0 offset=0x00000000000067b0 sizeof_cell=48
GCELL idx=554 base=0x0000000000012d00 addr=0x00000000000194e0 offset=0x00000000000067e0 sizeof_cell=48
GCELL idx=555 base=0x0000000000012d00 addr=0x0000000000019510 offset=0x0000000000006810 sizeof_cell=48
GCELL idx=556 base=0x0000000000012d00 addr=0x0000000000019540 offset=0x0000000000006840 sizeof_cell=48
GCELL idx=557 base=0x0000000000012d00 addr=0x0000000000019570 offset=0x0000000000006870 sizeof_cell=48
GCELL idx=558 base=0x0000000000012d00 addr=0x00000000000195a0 offset=0x00000000000068a0 sizeof_cell=48
GCELL idx=559 base=0x0000000000012d00 addr=0x00000000000195d0 offset=0x00000000000068d0 sizeof_cell=48
GCELL idx=560 base=0x0000000000012d00 addr=0x0000000000019600 offset=0x0000000000006900 sizeof_cell=48
GCELL idx=561 base=0x0000000000012d00 addr=0x0000000000019630 offset=0x0000000000006930 sizeof_cell=48
GCELL idx=562 base=0x0000000000012d00 addr=0x0000000000019660 offset=0x0000000000006960 sizeof_cell=48
GCELL idx=563 base=0x0000000000012d00 addr=0x0000000000019690 offset=0x0000000000006990 sizeof_cell=48
GCELL idx=564 base=0x0000000000012d00 addr=0x00000000000196c0 offset=0x00000000000069c0 sizeof_cell=48
GCELL idx=565 base=0x0000000000012d00 addr=0x00000000000196f0 offset=0x00000000000069f0 sizeof_cell=48
GCELL idx=566 base=0x0000000000012d00 addr=0x0000000000019720 offset=0x0000000000006a20 sizeof_cell=48
GCELL idx=567 base=0x0000000000012d00 addr=0x0000000000019750 offset=0x0000000000006a50 sizeof_cell=48
GCELL idx=568 base=0x0000000000012d00 addr=0x0000000000019780 offset=0x0000000000006a80 sizeof_cell=48
GCELL idx=569 base=0x0000000000012d00 addr=0x00000000000197b0 offset=0x0000000000006ab0 sizeof_cell=48
GCELL idx=570 base=0x0000000000012d00 addr=0x00000000000197e0 offset=0x0000000000006ae0 sizeof_cell=48
GCELL idx=571 base=0x0000000000012d00 addr=0x0000000000019810 offset=0x0000000000006b10 sizeof_cell=48
GCELL idx=572 base=0x0000000000012d00 addr=0x0000000000019840 offset=0x0000000000006b40 sizeof_cell=48
GCELL idx=573 base=0x0000000000012d00 addr=0x0000000000019870 offset=0x0000000000006b70 sizeof_cell=48
GCELL idx=574 base=0x0000000000012d00 addr=0x00000000000198a0 offset=0x0000000000006ba0 sizeof_cell=48
GCELL idx=575 base=0x0000000000012d00 addr=0x00000000000198d0 offset=0x0000000000006bd0 sizeof_cell=48
GCELL idx=576 base=0x0000000000012d00 addr=0x0000000000019900 offset=0x0000000000006c00 sizeof_cell=48
GCELL idx=577 base=0x0000000000012d00 addr=0x0000000000019930 offset=0x0000000000006c30 sizeof_cell=48
GCELL idx=578 base=0x0000000000012d00 addr=0x0000000000019960 offset=0x0000000000006c60 sizeof_cell=48
GCELL idx=579 base=0x0000000000012d00 addr=0x0000000000019990 offset=0x0000000000006c90 sizeof_cell=48
GCELL idx=580 base=0x0000000000012d00 addr=0x00000000000199c0 offset=0x0000000000006cc0 sizeof_cell=48
GCELL idx=581 base=0x0000000000012d00 addr=0x00000000000199f0 offset=0x0000000000006cf0 sizeof_cell=48
GCELL idx=582 base=0x0000000000012d00 addr=0x0000000000019a20 offset=0x0000000000006d20 sizeof_cell=48
GCELL idx=583 base=0x0000000000012d00 addr=0x0000000000019a50 offset=0x0000000000006d50 sizeof_cell=48
GCELL idx=584 base=0x0000000000012d00 addr=0x0000000000019a80 offset=0x0000000000006d80 sizeof_cell=48
GCELL idx=585 base=0x0000000000012d00 addr=0x0000000000019ab0 offset=0x0000000000006db0 sizeof_cell=48
GCELL idx=586 base=0x0000000000012d00 addr=0x0000000000019ae0 offset=0x0000000000006de0 sizeof_cell=48
GCELL idx=587 base=0x0000000000012d00 addr=0x0000000000019b10 offset=0x0000000000006e10 sizeof_cell=48
GCELL idx=588 base=0x0000000000012d00 addr=0x0000000000019b40 offset=0x0000000000006e40 sizeof_cell=48
GCELL idx=589 base=0x0000000000012d00 addr=0x0000000000019b70 offset=0x0000000000006e70 sizeof_cell=48
GCELL idx=590 base=0x0000000000012d00 addr=0x0000000000019ba0 offset=0x0000000000006ea0 sizeof_cell=48
GCELL idx=591 base=0x0000000000012d00 addr=0x0000000000019bd0 offset=0x0000000000006ed0 sizeof_cell=48
GCELL idx=592 base=0x0000000000012d00 addr=0x0000000000019c00 offset=0x0000000000006f00 sizeof_cell=48
GCELL idx=593 base=0x0000000000012d00 addr=0x0000000000019c30 offset=0x0000000000006f30 sizeof_cell=48
GCELL idx=594 base=0x0000000000012d00 addr=0x0000000000019c60 offset=0x0000000000006f60 sizeof_cell=48
GCELL idx=595 base=0x0000000000012d00 addr=0x0000000000019c90 offset=0x0000000000006f90 sizeof_cell=48
GCELL idx=596 base=0x0000000000012d00 addr=0x0000000000019cc0 offset=0x0000000000006fc0 sizeof_cell=48
GCELL idx=597 base=0x0000000000012d00 addr=0x0000000000019cf0 offset=0x0000000000006ff0 sizeof_cell=48
GCELL idx=598 base=0x0000000000012d00 addr=0x0000000000019d20 offset=0x0000000000007020 sizeof_cell=48
GCELL idx=599 base=0x0000000000012d00 addr=0x0000000000019d50 offset=0x0000000000007050 sizeof_cell=48
GCELL idx=600 base=0x0000000000012d00 addr=0x0000000000019d80 offset=0x0000000000007080 sizeof_cell=48
GCELL idx=601 base=0x0000000000012d00 addr=0x0000000000019db0 offset=0x00000000000070b0 sizeof_cell=48
GCELL idx=602 base=0x0000000000012d00 addr=0x0000000000019de0 offset=0x00000000000070e0 sizeof_cell=48
GCELL idx=603 base=0x0000000000012d00 addr=0x0000000000019e10 offset=0x0000000000007110 sizeof_cell=48
GCELL idx=604 base=0x0000000000012d00 addr=0x0000000000019e40 offset=0x0000000000007140 sizeof_cell=48
GCELL idx=605 base=0x0000000000012d00 addr=0x0000000000019e70 offset=0x0000000000007170 sizeof_cell=48
GCELL idx=606 base=0x0000000000012d00 addr=0x0000000000019ea0 offset=0x00000000000071a0 sizeof_cell=48
GCELL idx=607 base=0x0000000000012d00 addr=0x0000000000019ed0 offset=0x00000000000071d0 sizeof_cell=48
GCELL idx=608 base=0x0000000000012d00 addr=0x0000000000019f00 offset=0x0000000000007200 sizeof_cell=48
GCELL idx=609 base=0x0000000000012d00 addr=0x0000000000019f30 offset=0x0000000000007230 sizeof_cell=48
GCELL idx=610 base=0x0000000000012d00 addr=0x0000000000019f60 offset=0x0000000000007260 sizeof_cell=48
GCELL idx=611 base=0x0000000000012d00 addr=0x0000000000019f90 offset=0x0000000000007290 sizeof_cell=48
GCELL idx=612 base=0x0000000000012d00 addr=0x0000000000019fc0 offset=0x00000000000072c0 sizeof_cell=48
GCELL idx=613 base=0x0000000000012d00 addr=0x0000000000019ff0 offset=0x00000000000072f0 sizeof_cell=48
GCELL idx=614 base=0x0000000000012d00 addr=0x000000000001a020 offset=0x0000000000007320 sizeof_cell=48
GCELL idx=615 base=0x0000000000012d00 addr=0x000000000001a050 offset=0x0000000000007350 sizeof_cell=48
GCELL idx=616 base=0x0000000000012d00 addr=0x000000000001a080 offset=0x0000000000007380 sizeof_cell=48
GCELL idx=617 base=0x0000000000012d00 addr=0x000000000001a0b0 offset=0x00000000000073b0 sizeof_cell=48
GCELL idx=618 base=0x0000000000012d00 addr=0x000000000001a0e0 offset=0x00000000000073e0 sizeof_cell=48
GCELL idx=619 base=0x0000000000012d00 addr=0x000000000001a110 offset=0x0000000000007410 sizeof_cell=48
GCELL idx=620 base=0x0000000000012d00 addr=0x000000000001a140 offset=0x0000000000007440 sizeof_cell=48
GCELL idx=621 base=0x0000000000012d00 addr=0x000000000001a170 offset=0x0000000000007470 sizeof_cell=48
GCELL idx=622 base=0x0000000000012d00 addr=0x000000000001a1a0 offset=0x00000000000074a0 sizeof_cell=48
GCELL idx=623 base=0x0000000000012d00 addr=0x000000000001a1d0 offset=0x00000000000074d0 sizeof_cell=48
GCELL idx=624 base=0x0000000000012d00 addr=0x000000000001a200 offset=0x0000000000007500 sizeof_cell=48
GCELL idx=625 base=0x0000000000012d00 addr=0x000000000001a230 offset=0x0000000000007530 sizeof_cell=48
GCELL idx=626 base=0x0000000000012d00 addr=0x000000000001a260 offset=0x0000000000007560 sizeof_cell=48
GCELL idx=627 base=0x0000000000012d00 addr=0x000000000001a290 offset=0x0000000000007590 sizeof_cell=48
GCELL idx=628 base=0x0000000000012d00 addr=0x000000000001a2c0 offset=0x00000000000075c0 sizeof_cell=48
GCELL idx=629 base=0x0000000000012d00 addr=0x000000000001a2f0 offset=0x00000000000075f0 sizeof_cell=48
GCELL idx=630 base=0x0000000000012d00 addr=0x000000000001a320 offset=0x0000000000007620 sizeof_cell=48
GCELL idx=631 base=0x0000000000012d00 addr=0x000000000001a350 offset=0x0000000000007650 sizeof_cell=48
GCELL idx=632 base=0x0000000000012d00 addr=0x000000000001a380 offset=0x0000000000007680 sizeof_cell=48
GCELL idx=633 base=0x0000000000012d00 addr=0x000000000001a3b0 offset=0x00000000000076b0 sizeof_cell=48
GCELL idx=634 base=0x0000000000012d00 addr=0x000000000001a3e0 offset=0x00000000000076e0 sizeof_cell=48
GCELL idx=635 base=0x0000000000012d00 addr=0x000000000001a410 offset=0x0000000000007710 sizeof_cell=48
GCELL idx=636 base=0x0000000000012d00 addr=0x000000000001a440 offset=0x0000000000007740 sizeof_cell=48
GCELL idx=637 base=0x0000000000012d00 addr=0x000000000001a470 offset=0x0000000000007770 sizeof_cell=48
GCELL idx=638 base=0x0000000000012d00 addr=0x000000000001a4a0 offset=0x00000000000077a0 sizeof_cell=48
GCELL idx=639 base=0x0000000000012d00 addr=0x000000000001a4d0 offset=0x00000000000077d0 sizeof_cell=48
GCELL idx=640 base=0x0000000000012d00 addr=0x000000000001a500 offset=0x0000000000007800 sizeof_cell=48
GCELL idx=641 base=0x0000000000012d00 addr=0x000000000001a530 offset=0x0000000000007830 sizeof_cell=48
GCELL idx=642 base=0x0000000000012d00 addr=0x000000000001a560 offset=0x0000000000007860 sizeof_cell=48
GCELL idx=643 base=0x0000000000012d00 addr=0x000000000001a590 offset=0x0000000000007890 sizeof_cell=48
GCELL idx=644 base=0x0000000000012d00 addr=0x000000000001a5c0 offset=0x00000000000078c0 sizeof_cell=48
GCELL idx=645 base=0x0000000000012d00 addr=0x000000000001a5f0 offset=0x00000000000078f0 sizeof_cell=48
GCELL idx=646 base=0x0000000000012d00 addr=0x000000000001a620 offset=0x0000000000007920 sizeof_cell=48
GCELL idx=647 base=0x0000000000012d00 addr=0x000000000001a650 offset=0x0000000000007950 sizeof_cell=48
GCELL idx=648 base=0x0000000000012d00 addr=0x000000000001a680 offset=0x0000000000007980 sizeof_cell=48
GCELL idx=649 base=0x0000000000012d00 addr=0x000000000001a6b0 offset=0x00000000000079b0 sizeof_cell=48
GCELL idx=650 base=0x0000000000012d00 addr=0x000000000001a6e0 offset=0x00000000000079e0 sizeof_cell=48
GCELL idx=651 base=0x0000000000012d00 addr=0x000000000001a710 offset=0x0000000000007a10 sizeof_cell=48
GCELL idx=652 base=0x0000000000012d00 addr=0x000000000001a740 offset=0x0000000000007a40 sizeof_cell=48
GCELL idx=653 base=0x0000000000012d00 addr=0x000000000001a770 offset=0x0000000000007a70 sizeof_cell=48
GCELL idx=654 base=0x0000000000012d00 addr=0x000000000001a7a0 offset=0x0000000000007aa0 sizeof_cell=48
GCELL idx=655 base=0x0000000000012d00 addr=0x000000000001a7d0 offset=0x0000000000007ad0 sizeof_cell=48
GCELL idx=656 base=0x0000000000012d00 addr=0x000000000001a800 offset=0x0000000000007b00 sizeof_cell=48
GCELL idx=657 base=0x0000000000012d00 addr=0x000000000001a830 offset=0x0000000000007b30 sizeof_cell=48
GCELL idx=658 base=0x0000000000012d00 addr=0x000000000001a860 offset=0x0000000000007b60 sizeof_cell=48
GCELL idx=659 base=0x0000000000012d00 addr=0x000000000001a890 offset=0x0000000000007b90 sizeof_cell=48
GCELL idx=660 base=0x0000000000012d00 addr=0x000000000001a8c0 offset=0x0000000000007bc0 sizeof_cell=48
GCELL idx=661 base=0x0000000000012d00 addr=0x000000000001a8f0 offset=0x0000000000007bf0 sizeof_cell=48
GCELL idx=662 base=0x0000000000012d00 addr=0x000000000001a920 offset=0x0000000000007c20 sizeof_cell=48
GCELL idx=663 base=0x0000000000012d00 addr=0x000000000001a950 offset=0x0000000000007c50 sizeof_cell=48
GCELL idx=664 base=0x0000000000012d00 addr=0x000000000001a980 offset=0x0000000000007c80 sizeof_cell=48
GCELL idx=665 base=0x0000000000012d00 addr=0x000000000001a9b0 offset=0x0000000000007cb0 sizeof_cell=48
GCELL idx=666 base=0x0000000000012d00 addr=0x000000000001a9e0 offset=0x0000000000007ce0 sizeof_cell=48
GCELL idx=667 base=0x0000000000012d00 addr=0x000000000001aa10 offset=0x0000000000007d10 sizeof_cell=48
GCELL idx=668 base=0x0000000000012d00 addr=0x000000000001aa40 offset=0x0000000000007d40 sizeof_cell=48
GCELL idx=669 base=0x0000000000012d00 addr=0x000000000001aa70 offset=0x0000000000007d70 sizeof_cell=48
GCELL idx=670 base=0x0000000000012d00 addr=0x000000000001aaa0 offset=0x0000000000007da0 sizeof_cell=48
GCELL idx=671 base=0x0000000000012d00 addr=0x000000000001aad0 offset=0x0000000000007dd0 sizeof_cell=48
GCELL idx=672 base=0x0000000000012d00 addr=0x000000000001ab00 offset=0x0000000000007e00 sizeof_cell=48
GCELL idx=673 base=0x0000000000012d00 addr=0x000000000001ab30 offset=0x0000000000007e30 sizeof_cell=48
GCELL idx=674 base=0x0000000000012d00 addr=0x000000000001ab60 offset=0x0000000000007e60 sizeof_cell=48
GCELL idx=675 base=0x0000000000012d00 addr=0x000000000001ab90 offset=0x0000000000007e90 sizeof_cell=48
GCELL idx=676 base=0x0000000000012d00 addr=0x000000000001abc0 offset=0x0000000000007ec0 sizeof_cell=48
GCELL idx=677 base=0x0000000000012d00 addr=0x000000000001abf0 offset=0x0000000000007ef0 sizeof_cell=48
GCELL idx=678 base=0x0000000000012d00 addr=0x000000000001ac20 offset=0x0000000000007f20 sizeof_cell=48
GCELL idx=679 base=0x0000000000012d00 addr=0x000000000001ac50 offset=0x0000000000007f50 sizeof_cell=48
GCELL idx=680 base=0x0000000000012d00 addr=0x000000000001ac80 offset=0x0000000000007f80 sizeof_cell=48
GCELL idx=681 base=0x0000000000012d00 addr=0x000000000001acb0 offset=0x0000000000007fb0 sizeof_cell=48
GCELL idx=682 base=0x0000000000012d00 addr=0x000000000001ace0 offset=0x0000000000007fe0 sizeof_cell=48
GCELL idx=683 base=0x0000000000012d00 addr=0x000000000001ad10 offset=0x0000000000008010 sizeof_cell=48
GCELL idx=684 base=0x0000000000012d00 addr=0x000000000001ad40 offset=0x0000000000008040 sizeof_cell=48
GCELL idx=685 base=0x0000000000012d00 addr=0x000000000001ad70 offset=0x0000000000008070 sizeof_cell=48
GCELL idx=686 base=0x0000000000012d00 addr=0x000000000001ada0 offset=0x00000000000080a0 sizeof_cell=48
GCELL idx=687 base=0x0000000000012d00 addr=0x000000000001add0 offset=0x00000000000080d0 sizeof_cell=48
GCELL idx=688 base=0x0000000000012d00 addr=0x000000000001ae00 offset=0x0000000000008100 sizeof_cell=48
GCELL idx=689 base=0x0000000000012d00 addr=0x000000000001ae30 offset=0x0000000000008130 sizeof_cell=48
GCELL idx=690 base=0x0000000000012d00 addr=0x000000000001ae60 offset=0x0000000000008160 sizeof_cell=48
GCELL idx=691 base=0x0000000000012d00 addr=0x000000000001ae90 offset=0x0000000000008190 sizeof_cell=48
GCELL idx=692 base=0x0000000000012d00 addr=0x000000000001aec0 offset=0x00000000000081c0 sizeof_cell=48
GCELL idx=693 base=0x0000000000012d00 addr=0x000000000001aef0 offset=0x00000000000081f0 sizeof_cell=48
GCELL idx=694 base=0x0000000000012d00 addr=0x000000000001af20 offset=0x0000000000008220 sizeof_cell=48
GCELL idx=695 base=0x0000000000012d00 addr=0x000000000001af50 offset=0x0000000000008250 sizeof_cell=48
GCELL idx=696 base=0x0000000000012d00 addr=0x000000000001af80 offset=0x0000000000008280 sizeof_cell=48
GCELL idx=697 base=0x0000000000012d00 addr=0x000000000001afb0 offset=0x00000000000082b0 sizeof_cell=48
GCELL idx=698 base=0x0000000000012d00 addr=0x000000000001afe0 offset=0x00000000000082e0 sizeof_cell=48
GCELL idx=699 base=0x0000000000012d00 addr=0x000000000001b010 offset=0x0000000000008310 sizeof_cell=48
GCELL idx=700 base=0x0000000000012d00 addr=0x000000000001b040 offset=0x0000000000008340 sizeof_cell=48
GCELL idx=701 base=0x0000000000012d00 addr=0x000000000001b070 offset=0x0000000000008370 sizeof_cell=48
GCELL idx=702 base=0x0000000000012d00 addr=0x000000000001b0a0 offset=0x00000000000083a0 sizeof_cell=48
GCELL idx=703 base=0x0000000000012d00 addr=0x000000000001b0d0 offset=0x00000000000083d0 sizeof_cell=48
GCELL idx=704 base=0x0000000000012d00 addr=0x000000000001b100 offset=0x0000000000008400 sizeof_cell=48
GCELL idx=705 base=0x0000000000012d00 addr=0x000000000001b130 offset=0x0000000000008430 sizeof_cell=48
GCELL idx=706 base=0x0000000000012d00 addr=0x000000000001b160 offset=0x0000000000008460 sizeof_cell=48
GCELL idx=707 base=0x0000000000012d00 addr=0x000000000001b190 offset=0x0000000000008490 sizeof_cell=48
GCELL idx=708 base=0x0000000000012d00 addr=0x000000000001b1c0 offset=0x00000000000084c0 sizeof_cell=48
GCELL idx=709 base=0x0000000000012d00 addr=0x000000000001b1f0 offset=0x00000000000084f0 sizeof_cell=48
GCELL idx=710 base=0x0000000000012d00 addr=0x000000000001b220 offset=0x0000000000008520 sizeof_cell=48
GCELL idx=711 base=0x0000000000012d00 addr=0x000000000001b250 offset=0x0000000000008550 sizeof_cell=48
GCELL idx=712 base=0x0000000000012d00 addr=0x000000000001b280 offset=0x0000000000008580 sizeof_cell=48
GCELL idx=713 base=0x0000000000012d00 addr=0x000000000001b2b0 offset=0x00000000000085b0 sizeof_cell=48
GCELL idx=714 base=0x0000000000012d00 addr=0x000000000001b2e0 offset=0x00000000000085e0 sizeof_cell=48
GCELL idx=715 base=0x0000000000012d00 addr=0x000000000001b310 offset=0x0000000000008610 sizeof_cell=48
GCELL idx=716 base=0x0000000000012d00 addr=0x000000000001b340 offset=0x0000000000008640 sizeof_cell=48
GCELL idx=717 base=0x0000000000012d00 addr=0x000000000001b370 offset=0x0000000000008670 sizeof_cell=48
GCELL idx=718 base=0x0000000000012d00 addr=0x000000000001b3a0 offset=0x00000000000086a0 sizeof_cell=48
GCELL idx=719 base=0x0000000000012d00 addr=0x000000000001b3d0 offset=0x00000000000086d0 sizeof_cell=48
GCELL idx=720 base=0x0000000000012d00 addr=0x000000000001b400 offset=0x0000000000008700 sizeof_cell=48
GCELL idx=721 base=0x0000000000012d00 addr=0x000000000001b430 offset=0x0000000000008730 sizeof_cell=48
GCELL idx=722 base=0x0000000000012d00 addr=0x000000000001b460 offset=0x0000000000008760 sizeof_cell=48
GCELL idx=723 base=0x0000000000012d00 addr=0x000000000001b490 offset=0x0000000000008790 sizeof_cell=48
GCELL idx=724 base=0x0000000000012d00 addr=0x000000000001b4c0 offset=0x00000000000087c0 sizeof_cell=48
GCELL idx=725 base=0x0000000000012d00 addr=0x000000000001b4f0 offset=0x00000000000087f0 sizeof_cell=48
GCELL idx=726 base=0x0000000000012d00 addr=0x000000000001b520 offset=0x0000000000008820 sizeof_cell=48
GCELL idx=727 base=0x0000000000012d00 addr=0x000000000001b550 offset=0x0000000000008850 sizeof_cell=48
GCELL idx=728 base=0x0000000000012d00 addr=0x000000000001b580 offset=0x0000000000008880 sizeof_cell=48
GCELL idx=729 base=0x0000000000012d00 addr=0x000000000001b5b0 offset=0x00000000000088b0 sizeof_cell=48
GCELL idx=730 base=0x0000000000012d00 addr=0x000000000001b5e0 offset=0x00000000000088e0 sizeof_cell=48
GCELL idx=731 base=0x0000000000012d00 addr=0x000000000001b610 offset=0x0000000000008910 sizeof_cell=48
GCELL idx=732 base=0x0000000000012d00 addr=0x000000000001b640 offset=0x0000000000008940 sizeof_cell=48
GCELL idx=733 base=0x0000000000012d00 addr=0x000000000001b670 offset=0x0000000000008970 sizeof_cell=48
GCELL idx=734 base=0x0000000000012d00 addr=0x000000000001b6a0 offset=0x00000000000089a0 sizeof_cell=48
GCELL idx=735 base=0x0000000000012d00 addr=0x000000000001b6d0 offset=0x00000000000089d0 sizeof_cell=48
GCELL idx=736 base=0x0000000000012d00 addr=0x000000000001b700 offset=0x0000000000008a00 sizeof_cell=48
GCELL idx=737 base=0x0000000000012d00 addr=0x000000000001b730 offset=0x0000000000008a30 sizeof_cell=48
GCELL idx=738 base=0x0000000000012d00 addr=0x000000000001b760 offset=0x0000000000008a60 sizeof_cell=48
GCELL idx=739 base=0x0000000000012d00 addr=0x000000000001b790 offset=0x0000000000008a90 sizeof_cell=48
GCELL idx=740 base=0x0000000000012d00 addr=0x000000000001b7c0 offset=0x0000000000008ac0 sizeof_cell=48
GCELL idx=741 base=0x0000000000012d00 addr=0x000000000001b7f0 offset=0x0000000000008af0 sizeof_cell=48
GCELL idx=742 base=0x0000000000012d00 addr=0x000000000001b820 offset=0x0000000000008b20 sizeof_cell=48
GCELL idx=743 base=0x0000000000012d00 addr=0x000000000001b850 offset=0x0000000000008b50 sizeof_cell=48
GCELL idx=744 base=0x0000000000012d00 addr=0x000000000001b880 offset=0x0000000000008b80 sizeof_cell=48
GCELL idx=745 base=0x0000000000012d00 addr=0x000000000001b8b0 offset=0x0000000000008bb0 sizeof_cell=48
GCELL idx=746 base=0x0000000000012d00 addr=0x000000000001b8e0 offset=0x0000000000008be0 sizeof_cell=48
GCELL idx=747 base=0x0000000000012d00 addr=0x000000000001b910 offset=0x0000000000008c10 sizeof_cell=48
GCELL idx=748 base=0x0000000000012d00 addr=0x000000000001b940 offset=0x0000000000008c40 sizeof_cell=48
GCELL idx=749 base=0x0000000000012d00 addr=0x000000000001b970 offset=0x0000000000008c70 sizeof_cell=48
GCELL idx=750 base=0x0000000000012d00 addr=0x000000000001b9a0 offset=0x0000000000008ca0 sizeof_cell=48
GCELL idx=751 base=0x0000000000012d00 addr=0x000000000001b9d0 offset=0x0000000000008cd0 sizeof_cell=48
GCELL idx=752 base=0x0000000000012d00 addr=0x000000000001ba00 offset=0x0000000000008d00 sizeof_cell=48
GCELL idx=753 base=0x0000000000012d00 addr=0x000000000001ba30 offset=0x0000000000008d30 sizeof_cell=48
GCELL idx=754 base=0x0000000000012d00 addr=0x000000000001ba60 offset=0x0000000000008d60 sizeof_cell=48
GCELL idx=755 base=0x0000000000012d00 addr=0x000000000001ba90 offset=0x0000000000008d90 sizeof_cell=48
GCELL idx=756 base=0x0000000000012d00 addr=0x000000000001bac0 offset=0x0000000000008dc0 sizeof_cell=48
GCELL idx=757 base=0x0000000000012d00 addr=0x000000000001baf0 offset=0x0000000000008df0 sizeof_cell=48
GCELL idx=758 base=0x0000000000012d00 addr=0x000000000001bb20 offset=0x0000000000008e20 sizeof_cell=48
GCELL idx=759 base=0x0000000000012d00 addr=0x000000000001bb50 offset=0x0000000000008e50 sizeof_cell=48
GCELL idx=760 base=0x0000000000012d00 addr=0x000000000001bb80 offset=0x0000000000008e80 sizeof_cell=48
GCELL idx=761 base=0x0000000000012d00 addr=0x000000000001bbb0 offset=0x0000000000008eb0 sizeof_cell=48
GCELL idx=762 base=0x0000000000012d00 addr=0x000000000001bbe0 offset=0x0000000000008ee0 sizeof_cell=48
GCELL idx=763 base=0x0000000000012d00 addr=0x000000000001bc10 offset=0x0000000000008f10 sizeof_cell=48
GCELL idx=764 base=0x0000000000012d00 addr=0x000000000001bc40 offset=0x0000000000008f40 sizeof_cell=48
GCELL idx=765 base=0x0000000000012d00 addr=0x000000000001bc70 offset=0x0000000000008f70 sizeof_cell=48
GCELL idx=766 base=0x0000000000012d00 addr=0x000000000001bca0 offset=0x0000000000008fa0 sizeof_cell=48
GCELL idx=767 base=0x0000000000012d00 addr=0x000000000001bcd0 offset=0x0000000000008fd0 sizeof_cell=48
GCELL idx=768 base=0x0000000000012d00 addr=0x000000000001bd00 offset=0x0000000000009000 sizeof_cell=48
GCELL idx=769 base=0x0000000000012d00 addr=0x000000000001bd30 offset=0x0000000000009030 sizeof_cell=48
GCELL idx=770 base=0x0000000000012d00 addr=0x000000000001bd60 offset=0x0000000000009060 sizeof_cell=48
[...]
GCELL idx=3918 base=0x0000000000012d00 addr=0x0000000000040ba0 offset=0x000000000002dea0 sizeof_cell=48
GCELL idx=3919 base=0x0000000000012d00 addr=0x0000000000040bd0 offset=0x000000000002ded0 sizeof_cell=48
GCELL idx=3920 base=0x0000000000012d00 addr=0x0000000000040c00 offset=0x000000000002df00 sizeof_cell=48
GCELL idx=3921 base=0x0000000000012d00 addr=0x0000000000040c30 offset=0x000000000002df30 sizeof_cell=48
GCELL idx=3922 base=0x0000000000012d00 addr=0x0000000000040c60 offset=0x000000000002df60 sizeof_cell=48
GCELL idx=3923 base=0x0000000000012d00 addr=0x0000000000040c90 offset=0x000000000002df90 sizeof_cell=48
GCELL idx=3924 base=0x0000000000012d00 addr=0x0000000000040cc0 offset=0x000000000002dfc0 sizeof_cell=48
GCELL idx=3925 base=0x0000000000012d00 addr=0x0000000000040cf0 offset=0x000000000002dff0 sizeof_cell=48
GCELL idx=3926 base=0x0000000000012d00 addr=0x0000000000040d20 offset=0x000000000002e020 sizeof_cell=48
GCELL idx=3927 base=0x0000000000012d00 addr=0x0000000000040d50 offset=0x000000000002e050 sizeof_cell=48
GCELL idx=3928 base=0x0000000000012d00 addr=0x0000000000040d80 offset=0x000000000002e080 sizeof_cell=48
GCELL idx=3929 base=0x0000000000012d00 addr=0x0000000000040db0 offset=0x000000000002e0b0 sizeof_cell=48
GCELL idx=3930 base=0x0000000000012d00 addr=0x0000000000040de0 offset=0x000000000002e0e0 sizeof_cell=48
GCELL idx=3931 base=0x0000000000012d00 addr=0x0000000000040e10 offset=0x000000000002e110 sizeof_cell=48
GCELL idx=3932 base=0x0000000000012d00 addr=0x0000000000040e40 offset=0x000000000002e140 sizeof_cell=48
GCELL idx=3933 base=0x0000000000012d00 addr=0x0000000000040e70 offset=0x000000000002e170 sizeof_cell=48
GCELL idx=3934 base=0x0000000000012d00 addr=0x0000000000040ea0 offset=0x000000000002e1a0 sizeof_cell=48
GCELL idx=3935 base=0x0000000000012d00 addr=0x0000000000040ed0 offset=0x000000000002e1d0 sizeof_cell=48
GCELL idx=3936 base=0x0000000000012d00 addr=0x0000000000040f00 offset=0x000000000002e200 sizeof_cell=48
GCELL idx=3937 base=0x0000000000012d00 addr=0x0000000000040f30 offset=0x000000000002e230 sizeof_cell=48
GCELL idx=3938 base=0x0000000000012d00 addr=0x0000000000040f60 offset=0x000000000002e260 sizeof_cell=48
GCELL idx=3939 base=0x0000000000012d00 addr=0x0000000000040f90 offset=0x000000000002e290 sizeof_cell=48
GCELL idx=3940 base=0x0000000000012d00 addr=0x0000000000040fc0 offset=0x000000000002e2c0 sizeof_cell=48
GCELL idx=3941 base=0x0000000000012d00 addr=0x0000000000040ff0 offset=0x000000000002e2f0 sizeof_cell=48
GCELL idx=3942 base=0x0000000000012d00 addr=0x0000000000041020 offset=0x000000000002e320 sizeof_cell=48
GCELL idx=3943 base=0x0000000000012d00 addr=0x0000000000041050 offset=0x000000000002e350 sizeof_cell=48
GCELL idx=3944 base=0x0000000000012d00 addr=0x0000000000041080 offset=0x000000000002e380 sizeof_cell=48
GCELL idx=3945 base=0x0000000000012d00 addr=0x00000000000410b0 offset=0x000000000002e3b0 sizeof_cell=48
GCELL idx=3946 base=0x0000000000012d00 addr=0x00000000000410e0 offset=0x000000000002e3e0 sizeof_cell=48
GCELL idx=3947 base=0x0000000000012d00 addr=0x0000000000041110 offset=0x000000000002e410 sizeof_cell=48
GCELL idx=3948 base=0x0000000000012d00 addr=0x0000000000041140 offset=0x000000000002e440 sizeof_cell=48
GCELL idx=3949 base=0x0000000000012d00 addr=0x0000000000041170 offset=0x000000000002e470 sizeof_cell=48
GCELL idx=3950 base=0x0000000000012d00 addr=0x00000000000411a0 offset=0x000000000002e4a0 sizeof_cell=48
GCELL idx=3951 base=0x0000000000012d00 addr=0x00000000000411d0 offset=0x000000000002e4d0 sizeof_cell=48
GCELL idx=3952 base=0x0000000000012d00 addr=0x0000000000041200 offset=0x000000000002e500 sizeof_cell=48
GCELL idx=3953 base=0x0000000000012d00 addr=0x0000000000041230 offset=0x000000000002e530 sizeof_cell=48
GCELL idx=3954 base=0x0000000000012d00 addr=0x0000000000041260 offset=0x000000000002e560 sizeof_cell=48
GCELL idx=3955 base=0x0000000000012d00 addr=0x0000000000041290 offset=0x000000000002e590 sizeof_cell=48
GCELL idx=3956 base=0x0000000000012d00 addr=0x00000000000412c0 offset=0x000000000002e5c0 sizeof_cell=48
GCELL idx=3957 base=0x0000000000012d00 addr=0x00000000000412f0 offset=0x000000000002e5f0 sizeof_cell=48
GCELL idx=3958 base=0x0000000000012d00 addr=0x0000000000041320 offset=0x000000000002e620 sizeof_cell=48
GCELL idx=3959 base=0x0000000000012d00 addr=0x0000000000041350 offset=0x000000000002e650 sizeof_cell=48
GCELL idx=3960 base=0x0000000000012d00 addr=0x0000000000041380 offset=0x000000000002e680 sizeof_cell=48
GCELL idx=3961 base=0x0000000000012d00 addr=0x00000000000413b0 offset=0x000000000002e6b0 sizeof_cell=48
GCELL idx=3962 base=0x0000000000012d00 addr=0x00000000000413e0 offset=0x000000000002e6e0 sizeof_cell=48
GCELL idx=3963 base=0x0000000000012d00 addr=0x0000000000041410 offset=0x000000000002e710 sizeof_cell=48
GCELL idx=3964 base=0x0000000000012d00 addr=0x0000000000041440 offset=0x000000000002e740 sizeof_cell=48
GCELL idx=3965 base=0x0000000000012d00 addr=0x0000000000041470 offset=0x000000000002e770 sizeof_cell=48
GCELL idx=3966 base=0x0000000000012d00 addr=0x00000000000414a0 offset=0x000000000002e7a0 sizeof_cell=48
GCELL idx=3967 base=0x0000000000012d00 addr=0x00000000000414d0 offset=0x000000000002e7d0 sizeof_cell=48
GCELL idx=3968 base=0x0000000000012d00 addr=0x0000000000041500 offset=0x000000000002e800 sizeof_cell=48
GCELL idx=3969 base=0x0000000000012d00 addr=0x0000000000041530 offset=0x000000000002e830 sizeof_cell=48
GCELL idx=3970 base=0x0000000000012d00 addr=0x0000000000041560 offset=0x000000000002e860 sizeof_cell=48
GCELL idx=3971 base=0x0000000000012d00 addr=0x0000000000041590 offset=0x000000000002e890 sizeof_cell=48
GCELL idx=3972 base=0x0000000000012d00 addr=0x00000000000415c0 offset=0x000000000002e8c0 sizeof_cell=48
GCELL idx=3973 base=0x0000000000012d00 addr=0x00000000000415f0 offset=0x000000000002e8f0 sizeof_cell=48
GCELL idx=3974 base=0x0000000000012d00 addr=0x0000000000041620 offset=0x000000000002e920 sizeof_cell=48
GCELL idx=3975 base=0x0000000000012d00 addr=0x0000000000041650 offset=0x000000000002e950 sizeof_cell=48
GCELL idx=3976 base=0x0000000000012d00 addr=0x0000000000041680 offset=0x000000000002e980 sizeof_cell=48
GCELL idx=3977 base=0x0000000000012d00 addr=0x00000000000416b0 offset=0x000000000002e9b0 sizeof_cell=48
GCELL idx=3978 base=0x0000000000012d00 addr=0x00000000000416e0 offset=0x000000000002e9e0 sizeof_cell=48
GCELL idx=3979 base=0x0000000000012d00 addr=0x0000000000041710 offset=0x000000000002ea10 sizeof_cell=48
GCELL idx=3980 base=0x0000000000012d00 addr=0x0000000000041740 offset=0x000000000002ea40 sizeof_cell=48
GCELL idx=3981 base=0x0000000000012d00 addr=0x0000000000041770 offset=0x000000000002ea70 sizeof_cell=48
GCELL idx=3982 base=0x0000000000012d00 addr=0x00000000000417a0 offset=0x000000000002eaa0 sizeof_cell=48
GCELL idx=3983 base=0x0000000000012d00 addr=0x00000000000417d0 offset=0x000000000002ead0 sizeof_cell=48
GCELL idx=3984 base=0x0000000000012d00 addr=0x0000000000041800 offset=0x000000000002eb00 sizeof_cell=48
GCELL idx=3985 base=0x0000000000012d00 addr=0x0000000000041830 offset=0x000000000002eb30 sizeof_cell=48
GCELL idx=3986 base=0x0000000000012d00 addr=0x0000000000041860 offset=0x000000000002eb60 sizeof_cell=48
GCELL idx=3987 base=0x0000000000012d00 addr=0x0000000000041890 offset=0x000000000002eb90 sizeof_cell=48
GCELL idx=3988 base=0x0000000000012d00 addr=0x00000000000418c0 offset=0x000000000002ebc0 sizeof_cell=48
GCELL idx=3989 base=0x0000000000012d00 addr=0x00000000000418f0 offset=0x000000000002ebf0 sizeof_cell=48
GCELL idx=3990 base=0x0000000000012d00 addr=0x0000000000041920 offset=0x000000000002ec20 sizeof_cell=48
GCELL idx=3991 base=0x0000000000012d00 addr=0x0000000000041950 offset=0x000000000002ec50 sizeof_cell=48
GCELL idx=3992 base=0x0000000000012d00 addr=0x0000000000041980 offset=0x000000000002ec80 sizeof_cell=48
GCELL idx=3993 base=0x0000000000012d00 addr=0x00000000000419b0 offset=0x000000000002ecb0 sizeof_cell=48
GCELL idx=3994 base=0x0000000000012d00 addr=0x00000000000419e0 offset=0x000000000002ece0 sizeof_cell=48
GCELL idx=3995 base=0x0000000000012d00 addr=0x0000000000041a10 offset=0x000000000002ed10 sizeof_cell=48
GCELL idx=3996 base=0x0000000000012d00 addr=0x0000000000041a40 offset=0x000000000002ed40 sizeof_cell=48
GCELL idx=3997 base=0x0000000000012d00 addr=0x0000000000041a70 offset=0x000000000002ed70 sizeof_cell=48
GCELL idx=3998 base=0x0000000000012d00 addr=0x0000000000041aa0 offset=0x000000000002eda0 sizeof_cell=48
GCELL idx=3999 base=0x0000000000012d00 addr=0x0000000000041ad0 offset=0x000000000002edd0 sizeof_cell=48
GCELL idx=4000 base=0x0000000000012d00 addr=0x0000000000041b00 offset=0x000000000002ee00 sizeof_cell=48
GCELL idx=4001 base=0x0000000000012d00 addr=0x0000000000041b30 offset=0x000000000002ee30 sizeof_cell=48
GCELL idx=4002 base=0x0000000000012d00 addr=0x0000000000041b60 offset=0x000000000002ee60 sizeof_cell=48
GCELL idx=4003 base=0x0000000000012d00 addr=0x0000000000041b90 offset=0x000000000002ee90 sizeof_cell=48
GCELL idx=4004 base=0x0000000000012d00 addr=0x0000000000041bc0 offset=0x000000000002eec0 sizeof_cell=48
GCELL idx=4005 base=0x0000000000012d00 addr=0x0000000000041bf0 offset=0x000000000002eef0 sizeof_cell=48
GCELL idx=4006 base=0x0000000000012d00 addr=0x0000000000041c20 offset=0x000000000002ef20 sizeof_cell=48
GCELL idx=4007 base=0x0000000000012d00 addr=0x0000000000041c50 offset=0x000000000002ef50 sizeof_cell=48
GCELL idx=4008 base=0x0000000000012d00 addr=0x0000000000041c80 offset=0x000000000002ef80 sizeof_cell=48
GCELL idx=4009 base=0x0000000000012d00 addr=0x0000000000041cb0 offset=0x000000000002efb0 sizeof_cell=48
GCELL idx=4010 base=0x0000000000012d00 addr=0x0000000000041ce0 offset=0x000000000002efe0 sizeof_cell=48
GCELL idx=4011 base=0x0000000000012d00 addr=0x0000000000041d10 offset=0x000000000002f010 sizeof_cell=48
GCELL idx=4012 base=0x0000000000012d00 addr=0x0000000000041d40 offset=0x000000000002f040 sizeof_cell=48
GCELL idx=4013 base=0x0000000000012d00 addr=0x0000000000041d70 offset=0x000000000002f070 sizeof_cell=48
GCELL idx=4014 base=0x0000000000012d00 addr=0x0000000000041da0 offset=0x000000000002f0a0 sizeof_cell=48
GCELL idx=4015 base=0x0000000000012d00 addr=0x0000000000041dd0 offset=0x000000000002f0d0 sizeof_cell=48
GCELL idx=4016 base=0x0000000000012d00 addr=0x0000000000041e00 offset=0x000000000002f100 sizeof_cell=48
GCELL idx=4017 base=0x0000000000012d00 addr=0x0000000000041e30 offset=0x000000000002f130 sizeof_cell=48
GCELL idx=4018 base=0x0000000000012d00 addr=0x0000000000041e60 offset=0x000000000002f160 sizeof_cell=48
GCELL idx=4019 base=0x0000000000012d00 addr=0x0000000000041e90 offset=0x000000000002f190 sizeof_cell=48
GCELL idx=4020 base=0x0000000000012d00 addr=0x0000000000041ec0 offset=0x000000000002f1c0 sizeof_cell=48
GCELL idx=4021 base=0x0000000000012d00 addr=0x0000000000041ef0 offset=0x000000000002f1f0 sizeof_cell=48
GCELL idx=4022 base=0x0000000000012d00 addr=0x0000000000041f20 offset=0x000000000002f220 sizeof_cell=48
GCELL idx=4023 base=0x0000000000012d00 addr=0x0000000000041f50 offset=0x000000000002f250 sizeof_cell=48
GCELL idx=4024 base=0x0000000000012d00 addr=0x0000000000041f80 offset=0x000000000002f280 sizeof_cell=48
GCELL idx=4025 base=0x0000000000012d00 addr=0x0000000000041fb0 offset=0x000000000002f2b0 sizeof_cell=48
GCELL idx=4026 base=0x0000000000012d00 addr=0x0000000000041fe0 offset=0x000000000002f2e0 sizeof_cell=48
GCELL idx=4027 base=0x0000000000012d00 addr=0x0000000000042010 offset=0x000000000002f310 sizeof_cell=48
GCELL idx=4028 base=0x0000000000012d00 addr=0x0000000000042040 offset=0x000000000002f340 sizeof_cell=48
GCELL idx=4029 base=0x0000000000012d00 addr=0x0000000000042070 offset=0x000000000002f370 sizeof_cell=48
GCELL idx=4030 base=0x0000000000012d00 addr=0x00000000000420a0 offset=0x000000000002f3a0 sizeof_cell=48
GCELL idx=4031 base=0x0000000000012d00 addr=0x00000000000420d0 offset=0x000000000002f3d0 sizeof_cell=48
GCELL idx=4032 base=0x0000000000012d00 addr=0x0000000000042100 offset=0x000000000002f400 sizeof_cell=48
GCELL idx=4033 base=0x0000000000012d00 addr=0x0000000000042130 offset=0x000000000002f430 sizeof_cell=48
GCELL idx=4034 base=0x0000000000012d00 addr=0x0000000000042160 offset=0x000000000002f460 sizeof_cell=48
GCELL idx=4035 base=0x0000000000012d00 addr=0x0000000000042190 offset=0x000000000002f490 sizeof_cell=48
GCELL idx=4036 base=0x0000000000012d00 addr=0x00000000000421c0 offset=0x000000000002f4c0 sizeof_cell=48
GCELL idx=4037 base=0x0000000000012d00 addr=0x00000000000421f0 offset=0x000000000002f4f0 sizeof_cell=48
GCELL idx=4038 base=0x0000000000012d00 addr=0x0000000000042220 offset=0x000000000002f520 sizeof_cell=48
GCELL idx=4039 base=0x0000000000012d00 addr=0x0000000000042250 offset=0x000000000002f550 sizeof_cell=48
GCELL idx=4040 base=0x0000000000012d00 addr=0x0000000000042280 offset=0x000000000002f580 sizeof_cell=48
GCELL idx=4041 base=0x0000000000012d00 addr=0x00000000000422b0 offset=0x000000000002f5b0 sizeof_cell=48
GCELL idx=4042 base=0x0000000000012d00 addr=0x00000000000422e0 offset=0x000000000002f5e0 sizeof_cell=48
GCELL idx=4043 base=0x0000000000012d00 addr=0x0000000000042310 offset=0x000000000002f610 sizeof_cell=48
GCELL idx=4044 base=0x0000000000012d00 addr=0x0000000000042340 offset=0x000000000002f640 sizeof_cell=48
GCELL idx=4045 base=0x0000000000012d00 addr=0x0000000000042370 offset=0x000000000002f670 sizeof_cell=48
GCELL idx=4046 base=0x0000000000012d00 addr=0x00000000000423a0 offset=0x000000000002f6a0 sizeof_cell=48
GCELL idx=4047 base=0x0000000000012d00 addr=0x00000000000423d0 offset=0x000000000002f6d0 sizeof_cell=48
GCELL idx=4048 base=0x0000000000012d00 addr=0x0000000000042400 offset=0x000000000002f700 sizeof_cell=48
GCELL idx=4049 base=0x0000000000012d00 addr=0x0000000000042430 offset=0x000000000002f730 sizeof_cell=48
GCELL idx=4050 base=0x0000000000012d00 addr=0x0000000000042460 offset=0x000000000002f760 sizeof_cell=48
GCELL idx=4051 base=0x0000000000012d00 addr=0x0000000000042490 offset=0x000000000002f790 sizeof_cell=48
GCELL idx=4052 base=0x0000000000012d00 addr=0x00000000000424c0 offset=0x000000000002f7c0 sizeof_cell=48
GCELL idx=4053 base=0x0000000000012d00 addr=0x00000000000424f0 offset=0x000000000002f7f0 sizeof_cell=48
GCELL idx=4054 base=0x0000000000012d00 addr=0x0000000000042520 offset=0x000000000002f820 sizeof_cell=48
GCELL idx=4055 base=0x0000000000012d00 addr=0x0000000000042550 offset=0x000000000002f850 sizeof_cell=48
GCELL idx=4056 base=0x0000000000012d00 addr=0x0000000000042580 offset=0x000000000002f880 sizeof_cell=48
GCELL idx=4057 base=0x0000000000012d00 addr=0x00000000000425b0 offset=0x000000000002f8b0 sizeof_cell=48
GCELL idx=4058 base=0x0000000000012d00 addr=0x00000000000425e0 offset=0x000000000002f8e0 sizeof_cell=48
GCELL idx=4059 base=0x0000000000012d00 addr=0x0000000000042610 offset=0x000000000002f910 sizeof_cell=48
GCELL idx=4060 base=0x0000000000012d00 addr=0x0000000000042640 offset=0x000000000002f940 sizeof_cell=48
GCELL idx=4061 base=0x0000000000012d00 addr=0x0000000000042670 offset=0x000000000002f970 sizeof_cell=48
GCELL idx=4062 base=0x0000000000012d00 addr=0x00000000000426a0 offset=0x000000000002f9a0 sizeof_cell=48
GCELL idx=4063 base=0x0000000000012d00 addr=0x00000000000426d0 offset=0x000000000002f9d0 sizeof_cell=48
GCELL idx=4064 base=0x0000000000012d00 addr=0x0000000000042700 offset=0x000000000002fa00 sizeof_cell=48
GCELL idx=4065 base=0x0000000000012d00 addr=0x0000000000042730 offset=0x000000000002fa30 sizeof_cell=48
GCELL idx=4066 base=0x0000000000012d00 addr=0x0000000000042760 offset=0x000000000002fa60 sizeof_cell=48
GCELL idx=4067 base=0x0000000000012d00 addr=0x0000000000042790 offset=0x000000000002fa90 sizeof_cell=48
GCELL idx=4068 base=0x0000000000012d00 addr=0x00000000000427c0 offset=0x000000000002fac0 sizeof_cell=48
GCELL idx=4069 base=0x0000000000012d00 addr=0x00000000000427f0 offset=0x000000000002faf0 sizeof_cell=48
GCELL idx=4070 base=0x0000000000012d00 addr=0x0000000000042820 offset=0x000000000002fb20 sizeof_cell=48
GCELL idx=4071 base=0x0000000000012d00 addr=0x0000000000042850 offset=0x000000000002fb50 sizeof_cell=48
GCELL idx=4072 base=0x0000000000012d00 addr=0x0000000000042880 offset=0x000000000002fb80 sizeof_cell=48
GCELL idx=4073 base=0x0000000000012d00 addr=0x00000000000428b0 offset=0x000000000002fbb0 sizeof_cell=48
GCELL idx=4074 base=0x0000000000012d00 addr=0x00000000000428e0 offset=0x000000000002fbe0 sizeof_cell=48
GCELL idx=4075 base=0x0000000000012d00 addr=0x0000000000042910 offset=0x000000000002fc10 sizeof_cell=48
GCELL idx=4076 base=0x0000000000012d00 addr=0x0000000000042940 offset=0x000000000002fc40 sizeof_cell=48
GCELL idx=4077 base=0x0000000000012d00 addr=0x0000000000042970 offset=0x000000000002fc70 sizeof_cell=48
GCELL idx=4078 base=0x0000000000012d00 addr=0x00000000000429a0 offset=0x000000000002fca0 sizeof_cell=48
GCELL idx=4079 base=0x0000000000012d00 addr=0x00000000000429d0 offset=0x000000000002fcd0 sizeof_cell=48
GCELL idx=4080 base=0x0000000000012d00 addr=0x0000000000042a00 offset=0x000000000002fd00 sizeof_cell=48
GCELL idx=4081 base=0x0000000000012d00 addr=0x0000000000042a30 offset=0x000000000002fd30 sizeof_cell=48
GCELL idx=4082 base=0x0000000000012d00 addr=0x0000000000042a60 offset=0x000000000002fd60 sizeof_cell=48
GCELL idx=4083 base=0x0000000000012d00 addr=0x0000000000042a90 offset=0x000000000002fd90 sizeof_cell=48
GCELL idx=4084 base=0x0000000000012d00 addr=0x0000000000042ac0 offset=0x000000000002fdc0 sizeof_cell=48
GCELL idx=4085 base=0x0000000000012d00 addr=0x0000000000042af0 offset=0x000000000002fdf0 sizeof_cell=48
GCELL idx=4086 base=0x0000000000012d00 addr=0x0000000000042b20 offset=0x000000000002fe20 sizeof_cell=48
GCELL idx=4087 base=0x0000000000012d00 addr=0x0000000000042b50 offset=0x000000000002fe50 sizeof_cell=48
GCELL idx=4088 base=0x0000000000012d00 addr=0x0000000000042b80 offset=0x000000000002fe80 sizeof_cell=48
GCELL idx=4089 base=0x0000000000012d00 addr=0x0000000000042bb0 offset=0x000000000002feb0 sizeof_cell=48
GCELL idx=4090 base=0x0000000000012d00 addr=0x0000000000042be0 offset=0x000000000002fee0 sizeof_cell=48
GCELL idx=4091 base=0x0000000000012d00 addr=0x0000000000042c10 offset=0x000000000002ff10 sizeof_cell=48
GCELL idx=4092 base=0x0000000000012d00 addr=0x0000000000042c40 offset=0x000000000002ff40 sizeof_cell=48
GCELL idx=4093 base=0x0000000000012d00 addr=0x0000000000042c70 offset=0x000000000002ff70 sizeof_cell=48
GCELL idx=4094 base=0x0000000000012d00 addr=0x0000000000042ca0 offset=0x000000000002ffa0 sizeof_cell=48
GCELL idx=4095 base=0x0000000000012d00 addr=0x0000000000042cd0 offset=0x000000000002ffd0 sizeof_cell=48
EXIT: tick=16722493000 cause=workbegin code=0
ITER_BEGIN t=0 tick=16722493000
16722513000: global: pseudo_inst::dram_opt_enter(0, 0)
DRAM OPT ON: vaddr=12d00 entryPaddr=2d00 extent= 42d00 inputAddr=7ffffffffffffeec
24673789000: global: DRAM opt exit workid: 0, threadid 0
DRAM OPT OFF: vaddr=12d00 entryPaddr=2d00 extent= 42d00 inputAddr=7ffffffffffffeec
EXIT: tick=24673795000 cause=workend code=0
ITER_END   t=0 tick=24673795000
EXIT: tick=24673814000 cause=workbegin code=1
ITER_BEGIN t=1 tick=24673814000
24673834000: global: pseudo_inst::dram_opt_enter(1, 0)
DRAM OPT ON: vaddr=12d00 entryPaddr=2d00 extent= 42d00 inputAddr=7ffffffffffffeec
32624014000: global: DRAM opt exit workid: 1, threadid 0
DRAM OPT OFF: vaddr=12d00 entryPaddr=2d00 extent= 42d00 inputAddr=7ffffffffffffeec
EXIT: tick=32624020000 cause=workend code=1
ITER_END   t=1 tick=32624020000
EXIT: tick=32624039000 cause=workbegin code=2
ITER_BEGIN t=2 tick=32624039000
32624059000: global: pseudo_inst::dram_opt_enter(2, 0)
DRAM OPT ON: vaddr=12d00 entryPaddr=2d00 extent= 42d00 inputAddr=7ffffffffffffeec
40572666000: global: DRAM opt exit workid: 2, threadid 0
DRAM OPT OFF: vaddr=12d00 entryPaddr=2d00 extent= 42d00 inputAddr=7ffffffffffffeec
EXIT: tick=40572672000 cause=workend code=2
ITER_END   t=2 tick=40572672000
EXIT: tick=41023295000 cause=exiting with last active thread context code=20
Program finished at tick 41023295000
