
---------- Begin Simulation Statistics ----------
simSeconds                                   0.006484                       # Number of seconds simulated (Second)
simTicks                                   6484162250                       # Number of ticks simulated (Tick)
finalTick                                  6484162250                       # Number of ticks from beginning of simulation (restored from checkpoints and never reset) (Tick)
simFreq                                  1000000000000                       # The number of ticks per simulated second ((Tick/Second))
hostSeconds                                     36.90                       # Real time elapsed on the host (Second)
hostTickRate                                175724678                       # The number of ticks simulated per host second (ticks/s) ((Tick/Second))
hostMemory                                    2201188                       # Number of bytes of host memory used (Byte)
simInsts                                      9346590                       # Number of instructions simulated (Count)
simOps                                       22415927                       # Number of ops (including micro ops) simulated (Count)
hostInstRate                                   253295                       # Simulator instruction rate (inst/s) ((Count/Second))
hostOpRate                                     607475                       # Simulator op (including micro ops) rate (op/s) ((Count/Second))
system.clk_domain.clock                          1000                       # Clock period in ticks (Tick)
system.cpu.numCycles                         25936650                       # Number of cpu cycles simulated (Cycle)
system.cpu.numWorkItemsStarted                      0                       # Number of work items this cpu started (Count)
system.cpu.numWorkItemsCompleted                    0                       # Number of work items this cpu completed (Count)
system.cpu.exec_context.thread_0.numInsts      9346590                       # Number of instructions committed (Count)
system.cpu.exec_context.thread_0.numOps      22415927                       # Number of ops (including micro ops) committed (Count)
system.cpu.exec_context.thread_0.numIntAluAccesses     22151643                       # Number of integer alu accesses (Count)
system.cpu.exec_context.thread_0.numFpAluAccesses            0                       # Number of float alu accesses (Count)
system.cpu.exec_context.thread_0.numVecAluAccesses            0                       # Number of vector alu accesses (Count)
system.cpu.exec_context.thread_0.numCallsReturns         4249                       # Number of times a function call or return occured (Count)
system.cpu.exec_context.thread_0.numCondCtrlInsts       893396                       # Number of instructions that are conditional controls (Count)
system.cpu.exec_context.thread_0.numIntInsts     22151643                       # Number of integer instructions (Count)
system.cpu.exec_context.thread_0.numFpInsts            0                       # Number of float instructions (Count)
system.cpu.exec_context.thread_0.numVecInsts            0                       # Number of vector instructions (Count)
system.cpu.exec_context.thread_0.numIntRegReads     37380198                       # Number of times the integer registers were read (Count)
system.cpu.exec_context.thread_0.numIntRegWrites     22109636                       # Number of times the integer registers were written (Count)
system.cpu.exec_context.thread_0.numFpRegReads            0                       # Number of times the floating registers were read (Count)
system.cpu.exec_context.thread_0.numFpRegWrites            0                       # Number of times the floating registers were written (Count)
system.cpu.exec_context.thread_0.numVecRegReads            0                       # Number of times the vector registers were read (Count)
system.cpu.exec_context.thread_0.numVecRegWrites            0                       # Number of times the vector registers were written (Count)
system.cpu.exec_context.thread_0.numVecPredRegReads            0                       # Number of times the predicate registers were read (Count)
system.cpu.exec_context.thread_0.numVecPredRegWrites            0                       # Number of times the predicate registers were written (Count)
system.cpu.exec_context.thread_0.numCCRegReads     16407613                       # Number of times the CC registers were read (Count)
system.cpu.exec_context.thread_0.numCCRegWrites      5107828                       # Number of times the CC registers were written (Count)
system.cpu.exec_context.thread_0.numMiscRegReads      7820385                       # Number of times the Misc registers were read (Count)
system.cpu.exec_context.thread_0.numMiscRegWrites            0                       # Number of times the Misc registers were written (Count)
system.cpu.exec_context.thread_0.numMemRefs      5311462                       # Number of memory refs (Count)
system.cpu.exec_context.thread_0.numLoadInsts      3954034                       # Number of load instructions (Count)
system.cpu.exec_context.thread_0.numStoreInsts      1357428                       # Number of store instructions (Count)
system.cpu.exec_context.thread_0.numIdleCycles     0.004000                       # Number of idle cycles (Cycle)
system.cpu.exec_context.thread_0.numBusyCycles 25936649.996000                       # Number of busy cycles (Cycle)
system.cpu.exec_context.thread_0.notIdleFraction     1.000000                       # Percentage of non-idle cycles (Ratio)
system.cpu.exec_context.thread_0.idleFraction     0.000000                       # Percentage of idle cycles (Ratio)
system.cpu.exec_context.thread_0.numBranches      1215483                       # Number of branches fetched (Count)
system.cpu.exec_context.thread_0.statExecutedInstType::No_OpClass         2110      0.01%      0.01% # Class of executed instruction. (Count)
system.cpu.exec_context.thread_0.statExecutedInstType::IntAlu     15214061     67.87%     67.88% # Class of executed instruction. (Count)
system.cpu.exec_context.thread_0.statExecutedInstType::IntMult        53292      0.24%     68.12% # Class of executed instruction. (Count)
system.cpu.exec_context.thread_0.statExecutedInstType::IntDiv      1835008      8.19%     76.30% # Class of executed instruction. (Count)
system.cpu.exec_context.thread_0.statExecutedInstType::FloatAdd            0      0.00%     76.30% # Class of executed instruction. (Count)
system.cpu.exec_context.thread_0.statExecutedInstType::FloatCmp            0      0.00%     76.30% # Class of executed instruction. (Count)
system.cpu.exec_context.thread_0.statExecutedInstType::FloatCvt            0      0.00%     76.30% # Class of executed instruction. (Count)
system.cpu.exec_context.thread_0.statExecutedInstType::FloatMult            0      0.00%     76.30% # Class of executed instruction. (Count)
system.cpu.exec_context.thread_0.statExecutedInstType::FloatMultAcc            0      0.00%     76.30% # Class of executed instruction. (Count)
system.cpu.exec_context.thread_0.statExecutedInstType::FloatDiv            0      0.00%     76.30% # Class of executed instruction. (Count)
system.cpu.exec_context.thread_0.statExecutedInstType::FloatMisc            0      0.00%     76.30% # Class of executed instruction. (Count)
system.cpu.exec_context.thread_0.statExecutedInstType::FloatSqrt            0      0.00%     76.30% # Class of executed instruction. (Count)
system.cpu.exec_context.thread_0.statExecutedInstType::SimdAdd            0      0.00%     76.30% # Class of executed instruction. (Count)
system.cpu.exec_context.thread_0.statExecutedInstType::SimdAddAcc            0      0.00%     76.30% # Class of executed instruction. (Count)
system.cpu.exec_context.thread_0.statExecutedInstType::SimdAlu            0      0.00%     76.30% # Class of executed instruction. (Count)
system.cpu.exec_context.thread_0.statExecutedInstType::SimdCmp            0      0.00%     76.30% # Class of executed instruction. (Count)
system.cpu.exec_context.thread_0.statExecutedInstType::SimdCvt            0      0.00%     76.30% # Class of executed instruction. (Count)
system.cpu.exec_context.thread_0.statExecutedInstType::SimdMisc            0      0.00%     76.30% # Class of executed instruction. (Count)
system.cpu.exec_context.thread_0.statExecutedInstType::SimdMult            0      0.00%     76.30% # Class of executed instruction. (Count)
system.cpu.exec_context.thread_0.statExecutedInstType::SimdMultAcc            0      0.00%     76.30% # Class of executed instruction. (Count)
system.cpu.exec_context.thread_0.statExecutedInstType::SimdShift            0      0.00%     76.30% # Class of executed instruction. (Count)
system.cpu.exec_context.thread_0.statExecutedInstType::SimdShiftAcc            0      0.00%     76.30% # Class of executed instruction. (Count)
system.cpu.exec_context.thread_0.statExecutedInstType::SimdDiv            0      0.00%     76.30% # Class of executed instruction. (Count)
system.cpu.exec_context.thread_0.statExecutedInstType::SimdSqrt            0      0.00%     76.30% # Class of executed instruction. (Count)
system.cpu.exec_context.thread_0.statExecutedInstType::SimdFloatAdd            0      0.00%     76.30% # Class of executed instruction. (Count)
system.cpu.exec_context.thread_0.statExecutedInstType::SimdFloatAlu            0      0.00%     76.30% # Class of executed instruction. (Count)
system.cpu.exec_context.thread_0.statExecutedInstType::SimdFloatCmp            0      0.00%     76.30% # Class of executed instruction. (Count)
system.cpu.exec_context.thread_0.statExecutedInstType::SimdFloatCvt            0      0.00%     76.30% # Class of executed instruction. (Count)
system.cpu.exec_context.thread_0.statExecutedInstType::SimdFloatDiv            0      0.00%     76.30% # Class of executed instruction. (Count)
system.cpu.exec_context.thread_0.statExecutedInstType::SimdFloatMisc            0      0.00%     76.30% # Class of executed instruction. (Count)
system.cpu.exec_context.thread_0.statExecutedInstType::SimdFloatMult            0      0.00%     76.30% # Class of executed instruction. (Count)
system.cpu.exec_context.thread_0.statExecutedInstType::SimdFloatMultAcc            0      0.00%     76.30% # Class of executed instruction. (Count)
system.cpu.exec_context.thread_0.statExecutedInstType::SimdFloatSqrt            0      0.00%     76.30% # Class of executed instruction. (Count)
system.cpu.exec_context.thread_0.statExecutedInstType::SimdReduceAdd            0      0.00%     76.30% # Class of executed instruction. (Count)
system.cpu.exec_context.thread_0.statExecutedInstType::SimdReduceAlu            0      0.00%     76.30% # Class of executed instruction. (Count)
system.cpu.exec_context.thread_0.statExecutedInstType::SimdReduceCmp            0      0.00%     76.30% # Class of executed instruction. (Count)
system.cpu.exec_context.thread_0.statExecutedInstType::SimdFloatReduceAdd            0      0.00%     76.30% # Class of executed instruction. (Count)
system.cpu.exec_context.thread_0.statExecutedInstType::SimdFloatReduceCmp            0      0.00%     76.30% # Class of executed instruction. (Count)
system.cpu.exec_context.thread_0.statExecutedInstType::SimdAes            0      0.00%     76.30% # Class of executed instruction. (Count)
system.cpu.exec_context.thread_0.statExecutedInstType::SimdAesMix            0      0.00%     76.30% # Class of executed instruction. (Count)
system.cpu.exec_context.thread_0.statExecutedInstType::SimdSha1Hash            0      0.00%     76.30% # Class of executed instruction. (Count)
system.cpu.exec_context.thread_0.statExecutedInstType::SimdSha1Hash2            0      0.00%     76.30% # Class of executed instruction. (Count)
system.cpu.exec_context.thread_0.statExecutedInstType::SimdSha256Hash            0      0.00%     76.30% # Class of executed instruction. (Count)
system.cpu.exec_context.thread_0.statExecutedInstType::SimdSha256Hash2            0      0.00%     76.30% # Class of executed instruction. (Count)
system.cpu.exec_context.thread_0.statExecutedInstType::SimdShaSigma2            0      0.00%     76.30% # Class of executed instruction. (Count)
system.cpu.exec_context.thread_0.statExecutedInstType::SimdShaSigma3            0      0.00%     76.30% # Class of executed instruction. (Count)
system.cpu.exec_context.thread_0.statExecutedInstType::SimdPredAlu            0      0.00%     76.30% # Class of executed instruction. (Count)
system.cpu.exec_context.thread_0.statExecutedInstType::MemRead      3954034     17.64%     93.94% # Class of executed instruction. (Count)
system.cpu.exec_context.thread_0.statExecutedInstType::MemWrite      1357428      6.06%    100.00% # Class of executed instruction. (Count)
system.cpu.exec_context.thread_0.statExecutedInstType::FloatMemRead            0      0.00%    100.00% # Class of executed instruction. (Count)
system.cpu.exec_context.thread_0.statExecutedInstType::FloatMemWrite            0      0.00%    100.00% # Class of executed instruction. (Count)
system.cpu.exec_context.thread_0.statExecutedInstType::IprAccess            0      0.00%    100.00% # Class of executed instruction. (Count)
system.cpu.exec_context.thread_0.statExecutedInstType::InstPrefetch            0      0.00%    100.00% # Class of executed instruction. (Count)
system.cpu.exec_context.thread_0.statExecutedInstType::total     22415933                       # Class of executed instruction. (Count)
system.cpu.interrupts.clk_domain.clock           4000                       # Clock period in ticks (Tick)
system.cpu.mmu.dtb.rdAccesses                 3954034                       # TLB accesses on read requests (Count)
system.cpu.mmu.dtb.wrAccesses                 1357428                       # TLB accesses on write requests (Count)
system.cpu.mmu.dtb.rdMisses                         1                       # TLB misses on read requests (Count)
system.cpu.mmu.dtb.wrMisses                        42                       # TLB misses on write requests (Count)
system.cpu.mmu.dtb.walker.power_state.pwrStateResidencyTicks::UNDEFINED   6484162250                       # Cumulative time (in ticks) in various power states (Tick)
system.cpu.mmu.itb.rdAccesses                       0                       # TLB accesses on read requests (Count)
system.cpu.mmu.itb.wrAccesses                12867313                       # TLB accesses on write requests (Count)
system.cpu.mmu.itb.rdMisses                         0                       # TLB misses on read requests (Count)
system.cpu.mmu.itb.wrMisses                         1                       # TLB misses on write requests (Count)
system.cpu.mmu.itb.walker.power_state.pwrStateResidencyTicks::UNDEFINED   6484162250                       # Cumulative time (in ticks) in various power states (Tick)
system.cpu.power_state.pwrStateResidencyTicks::ON   6484162250                       # Cumulative time (in ticks) in various power states (Tick)
system.cpu.thread_0.numInsts                        0                       # Number of Instructions committed (Count)
system.cpu.thread_0.numOps                          0                       # Number of Ops committed (Count)
system.cpu.thread_0.numMemRefs                      0                       # Number of Memory References (Count)
system.cpu.workload.numSyscalls                     6                       # Number of system calls (Count)
system.cpu_clk_domain.clock                       250                       # Clock period in ticks (Tick)
system.cpu_voltage_domain.voltage                   1                       # Voltage in Volts (Volt)
system.mem_ctrls.priorityMinLatency      0.000000000000                       # per QoS priority minimum request to response latency (Second)
system.mem_ctrls.priorityMaxLatency      0.000000000000                       # per QoS priority maximum request to response latency (Second)
system.mem_ctrls.numReadWriteTurnArounds            0                       # Number of turnarounds from READ to WRITE (Count)
system.mem_ctrls.numWriteReadTurnArounds            0                       # Number of turnarounds from WRITE to READ (Count)
system.mem_ctrls.numStayReadState                   0                       # Number of times bus staying in READ state (Count)
system.mem_ctrls.numStayWriteState                  0                       # Number of times bus staying in WRITE state (Count)
system.mem_ctrls.readReqs                           0                       # Number of read requests accepted (Count)
system.mem_ctrls.writeReqs                          0                       # Number of write requests accepted (Count)
system.mem_ctrls.readBursts                         0                       # Number of controller read bursts, including those serviced by the write queue (Count)
system.mem_ctrls.writeBursts                        0                       # Number of controller write bursts, including those merged in the write queue (Count)
system.mem_ctrls.servicedByWrQ                      0                       # Number of controller read bursts serviced by the write queue (Count)
system.mem_ctrls.mergedWrBursts                     0                       # Number of controller write bursts merged with an existing one (Count)
system.mem_ctrls.neitherReadNorWriteReqs            0                       # Number of requests that are neither read nor write (Count)
system.mem_ctrls.avgRdQLen                       0.00                       # Average read queue length when enqueuing ((Count/Tick))
system.mem_ctrls.avgWrQLen                       0.00                       # Average write queue length when enqueuing ((Count/Tick))
system.mem_ctrls.numRdRetry                         0                       # Number of times read queue was full causing retry (Count)
system.mem_ctrls.numWrRetry                         0                       # Number of times write queue was full causing retry (Count)
system.mem_ctrls.readPktSize::0                     0                       # Read request sizes (log2) (Count)
system.mem_ctrls.readPktSize::1                     0                       # Read request sizes (log2) (Count)
system.mem_ctrls.readPktSize::2                     0                       # Read request sizes (log2) (Count)
system.mem_ctrls.readPktSize::3                     0                       # Read request sizes (log2) (Count)
system.mem_ctrls.readPktSize::4                     0                       # Read request sizes (log2) (Count)
system.mem_ctrls.readPktSize::5                     0                       # Read request sizes (log2) (Count)
system.mem_ctrls.readPktSize::6                     0                       # Read request sizes (log2) (Count)
system.mem_ctrls.writePktSize::0                    0                       # Write request sizes (log2) (Count)
system.mem_ctrls.writePktSize::1                    0                       # Write request sizes (log2) (Count)
system.mem_ctrls.writePktSize::2                    0                       # Write request sizes (log2) (Count)
system.mem_ctrls.writePktSize::3                    0                       # Write request sizes (log2) (Count)
system.mem_ctrls.writePktSize::4                    0                       # Write request sizes (log2) (Count)
system.mem_ctrls.writePktSize::5                    0                       # Write request sizes (log2) (Count)
system.mem_ctrls.writePktSize::6                    0                       # Write request sizes (log2) (Count)
system.mem_ctrls.rdQLenPdf::0                       0                       # What read queue length does an incoming req see (Count)
system.mem_ctrls.rdQLenPdf::1                       0                       # What read queue length does an incoming req see (Count)
system.mem_ctrls.rdQLenPdf::2                       0                       # What read queue length does an incoming req see (Count)
system.mem_ctrls.rdQLenPdf::3                       0                       # What read queue length does an incoming req see (Count)
system.mem_ctrls.rdQLenPdf::4                       0                       # What read queue length does an incoming req see (Count)
system.mem_ctrls.rdQLenPdf::5                       0                       # What read queue length does an incoming req see (Count)
system.mem_ctrls.rdQLenPdf::6                       0                       # What read queue length does an incoming req see (Count)
system.mem_ctrls.rdQLenPdf::7                       0                       # What read queue length does an incoming req see (Count)
system.mem_ctrls.rdQLenPdf::8                       0                       # What read queue length does an incoming req see (Count)
system.mem_ctrls.rdQLenPdf::9                       0                       # What read queue length does an incoming req see (Count)
system.mem_ctrls.rdQLenPdf::10                      0                       # What read queue length does an incoming req see (Count)
system.mem_ctrls.rdQLenPdf::11                      0                       # What read queue length does an incoming req see (Count)
system.mem_ctrls.rdQLenPdf::12                      0                       # What read queue length does an incoming req see (Count)
system.mem_ctrls.rdQLenPdf::13                      0                       # What read queue length does an incoming req see (Count)
system.mem_ctrls.rdQLenPdf::14                      0                       # What read queue length does an incoming req see (Count)
system.mem_ctrls.rdQLenPdf::15                      0                       # What read queue length does an incoming req see (Count)
system.mem_ctrls.rdQLenPdf::16                      0                       # What read queue length does an incoming req see (Count)
system.mem_ctrls.rdQLenPdf::17                      0                       # What read queue length does an incoming req see (Count)
system.mem_ctrls.rdQLenPdf::18                      0                       # What read queue length does an incoming req see (Count)
system.mem_ctrls.rdQLenPdf::19                      0                       # What read queue length does an incoming req see (Count)
system.mem_ctrls.rdQLenPdf::20                      0                       # What read queue length does an incoming req see (Count)
system.mem_ctrls.rdQLenPdf::21                      0                       # What read queue length does an incoming req see (Count)
system.mem_ctrls.rdQLenPdf::22                      0                       # What read queue length does an incoming req see (Count)
system.mem_ctrls.rdQLenPdf::23                      0                       # What read queue length does an incoming req see (Count)
system.mem_ctrls.rdQLenPdf::24                      0                       # What read queue length does an incoming req see (Count)
system.mem_ctrls.rdQLenPdf::25                      0                       # What read queue length does an incoming req see (Count)
system.mem_ctrls.rdQLenPdf::26                      0                       # What read queue length does an incoming req see (Count)
system.mem_ctrls.rdQLenPdf::27                      0                       # What read queue length does an incoming req see (Count)
system.mem_ctrls.rdQLenPdf::28                      0                       # What read queue length does an incoming req see (Count)
system.mem_ctrls.rdQLenPdf::29                      0                       # What read queue length does an incoming req see (Count)
system.mem_ctrls.rdQLenPdf::30                      0                       # What read queue length does an incoming req see (Count)
system.mem_ctrls.rdQLenPdf::31                      0                       # What read queue length does an incoming req see (Count)
system.mem_ctrls.wrQLenPdf::0                       0                       # What write queue length does an incoming req see (Count)
system.mem_ctrls.wrQLenPdf::1                       0                       # What write queue length does an incoming req see (Count)
system.mem_ctrls.wrQLenPdf::2                       0                       # What write queue length does an incoming req see (Count)
system.mem_ctrls.wrQLenPdf::3                       0                       # What write queue length does an incoming req see (Count)
system.mem_ctrls.wrQLenPdf::4                       0                       # What write queue length does an incoming req see (Count)
system.mem_ctrls.wrQLenPdf::5                       0                       # What write queue length does an incoming req see (Count)
system.mem_ctrls.wrQLenPdf::6                       0                       # What write queue length does an incoming req see (Count)
system.mem_ctrls.wrQLenPdf::7                       0                       # What write queue length does an incoming req see (Count)
system.mem_ctrls.wrQLenPdf::8                       0                       # What write queue length does an incoming req see (Count)
system.mem_ctrls.wrQLenPdf::9                       0                       # What write queue length does an incoming req see (Count)
system.mem_ctrls.wrQLenPdf::10                      0                       # What write queue length does an incoming req see (Count)
system.mem_ctrls.wrQLenPdf::11                      0                       # What write queue length does an incoming req see (Count)
system.mem_ctrls.wrQLenPdf::12                      0                       # What write queue length does an incoming req see (Count)
system.mem_ctrls.wrQLenPdf::13                      0                       # What write queue length does an incoming req see (Count)
system.mem_ctrls.wrQLenPdf::14                      0                       # What write queue length does an incoming req see (Count)
system.mem_ctrls.wrQLenPdf::15                      0                       # What write queue length does an incoming req see (Count)
system.mem_ctrls.wrQLenPdf::16                      0                       # What write queue length does an incoming req see (Count)
system.mem_ctrls.wrQLenPdf::17                      0                       # What write queue length does an incoming req see (Count)
system.mem_ctrls.wrQLenPdf::18                      0                       # What write queue length does an incoming req see (Count)
system.mem_ctrls.wrQLenPdf::19                      0                       # What write queue length does an incoming req see (Count)
system.mem_ctrls.wrQLenPdf::20                      0                       # What write queue length does an incoming req see (Count)
system.mem_ctrls.wrQLenPdf::21                      0                       # What write queue length does an incoming req see (Count)
system.mem_ctrls.wrQLenPdf::22                      0                       # What write queue length does an incoming req see (Count)
system.mem_ctrls.wrQLenPdf::23                      0                       # What write queue length does an incoming req see (Count)
system.mem_ctrls.wrQLenPdf::24                      0                       # What write queue length does an incoming req see (Count)
system.mem_ctrls.wrQLenPdf::25                      0                       # What write queue length does an incoming req see (Count)
system.mem_ctrls.wrQLenPdf::26                      0                       # What write queue length does an incoming req see (Count)
system.mem_ctrls.wrQLenPdf::27                      0                       # What write queue length does an incoming req see (Count)
system.mem_ctrls.wrQLenPdf::28                      0                       # What write queue length does an incoming req see (Count)
system.mem_ctrls.wrQLenPdf::29                      0                       # What write queue length does an incoming req see (Count)
system.mem_ctrls.wrQLenPdf::30                      0                       # What write queue length does an incoming req see (Count)
system.mem_ctrls.wrQLenPdf::31                      0                       # What write queue length does an incoming req see (Count)
system.mem_ctrls.wrQLenPdf::32                      0                       # What write queue length does an incoming req see (Count)
system.mem_ctrls.wrQLenPdf::33                      0                       # What write queue length does an incoming req see (Count)
system.mem_ctrls.wrQLenPdf::34                      0                       # What write queue length does an incoming req see (Count)
system.mem_ctrls.wrQLenPdf::35                      0                       # What write queue length does an incoming req see (Count)
system.mem_ctrls.wrQLenPdf::36                      0                       # What write queue length does an incoming req see (Count)
system.mem_ctrls.wrQLenPdf::37                      0                       # What write queue length does an incoming req see (Count)
system.mem_ctrls.wrQLenPdf::38                      0                       # What write queue length does an incoming req see (Count)
system.mem_ctrls.wrQLenPdf::39                      0                       # What write queue length does an incoming req see (Count)
system.mem_ctrls.wrQLenPdf::40                      0                       # What write queue length does an incoming req see (Count)
system.mem_ctrls.wrQLenPdf::41                      0                       # What write queue length does an incoming req see (Count)
system.mem_ctrls.wrQLenPdf::42                      0                       # What write queue length does an incoming req see (Count)
system.mem_ctrls.wrQLenPdf::43                      0                       # What write queue length does an incoming req see (Count)
system.mem_ctrls.wrQLenPdf::44                      0                       # What write queue length does an incoming req see (Count)
system.mem_ctrls.wrQLenPdf::45                      0                       # What write queue length does an incoming req see (Count)
system.mem_ctrls.wrQLenPdf::46                      0                       # What write queue length does an incoming req see (Count)
system.mem_ctrls.wrQLenPdf::47                      0                       # What write queue length does an incoming req see (Count)
system.mem_ctrls.wrQLenPdf::48                      0                       # What write queue length does an incoming req see (Count)
system.mem_ctrls.wrQLenPdf::49                      0                       # What write queue length does an incoming req see (Count)
system.mem_ctrls.wrQLenPdf::50                      0                       # What write queue length does an incoming req see (Count)
system.mem_ctrls.wrQLenPdf::51                      0                       # What write queue length does an incoming req see (Count)
system.mem_ctrls.wrQLenPdf::52                      0                       # What write queue length does an incoming req see (Count)
system.mem_ctrls.wrQLenPdf::53                      0                       # What write queue length does an incoming req see (Count)
system.mem_ctrls.wrQLenPdf::54                      0                       # What write queue length does an incoming req see (Count)
system.mem_ctrls.wrQLenPdf::55                      0                       # What write queue length does an incoming req see (Count)
system.mem_ctrls.wrQLenPdf::56                      0                       # What write queue length does an incoming req see (Count)
system.mem_ctrls.wrQLenPdf::57                      0                       # What write queue length does an incoming req see (Count)
system.mem_ctrls.wrQLenPdf::58                      0                       # What write queue length does an incoming req see (Count)
system.mem_ctrls.wrQLenPdf::59                      0                       # What write queue length does an incoming req see (Count)
system.mem_ctrls.wrQLenPdf::60                      0                       # What write queue length does an incoming req see (Count)
system.mem_ctrls.wrQLenPdf::61                      0                       # What write queue length does an incoming req see (Count)
system.mem_ctrls.wrQLenPdf::62                      0                       # What write queue length does an incoming req see (Count)
system.mem_ctrls.wrQLenPdf::63                      0                       # What write queue length does an incoming req see (Count)
system.mem_ctrls.bytesReadWrQ                       0                       # Total number of bytes read from write queue (Byte)
system.mem_ctrls.bytesReadSys                       0                       # Total read bytes from the system interface side (Byte)
system.mem_ctrls.bytesWrittenSys                    0                       # Total written bytes from the system interface side (Byte)
system.mem_ctrls.avgRdBWSys                0.00000000                       # Average system read bandwidth in Byte/s ((Byte/Second))
system.mem_ctrls.avgWrBWSys                0.00000000                       # Average system write bandwidth in Byte/s ((Byte/Second))
system.mem_ctrls.totGap                             0                       # Total gap between requests (Tick)
system.mem_ctrls.avgGap                           nan                       # Average gap between requests ((Tick/Count))
system.mem_ctrls.dram.bytesRead::cpu.inst    102938504                       # Number of bytes read from this memory (Byte)
system.mem_ctrls.dram.bytesRead::cpu.data     18071959                       # Number of bytes read from this memory (Byte)
system.mem_ctrls.dram.bytesRead::total      121010463                       # Number of bytes read from this memory (Byte)
system.mem_ctrls.dram.bytesInstRead::cpu.inst    102938504                       # Number of instructions bytes read from this memory (Byte)
system.mem_ctrls.dram.bytesInstRead::total    102938504                       # Number of instructions bytes read from this memory (Byte)
system.mem_ctrls.dram.bytesWritten::cpu.data      6560159                       # Number of bytes written to this memory (Byte)
system.mem_ctrls.dram.bytesWritten::total      6560159                       # Number of bytes written to this memory (Byte)
system.mem_ctrls.dram.numReads::cpu.inst     12867313                       # Number of read requests responded to by this memory (Count)
system.mem_ctrls.dram.numReads::cpu.data      3954034                       # Number of read requests responded to by this memory (Count)
system.mem_ctrls.dram.numReads::total        16821347                       # Number of read requests responded to by this memory (Count)
system.mem_ctrls.dram.numWrites::cpu.data      1357428                       # Number of write requests responded to by this memory (Count)
system.mem_ctrls.dram.numWrites::total        1357428                       # Number of write requests responded to by this memory (Count)
system.mem_ctrls.dram.bwRead::cpu.inst    15875374494                       # Total read bandwidth from this memory ((Byte/Second))
system.mem_ctrls.dram.bwRead::cpu.data     2787092350                       # Total read bandwidth from this memory ((Byte/Second))
system.mem_ctrls.dram.bwRead::total       18662466844                       # Total read bandwidth from this memory ((Byte/Second))
system.mem_ctrls.dram.bwInstRead::cpu.inst  15875374494                       # Instruction read bandwidth from this memory ((Byte/Second))
system.mem_ctrls.dram.bwInstRead::total   15875374494                       # Instruction read bandwidth from this memory ((Byte/Second))
system.mem_ctrls.dram.bwWrite::cpu.data    1011720365                       # Write bandwidth from this memory ((Byte/Second))
system.mem_ctrls.dram.bwWrite::total       1011720365                       # Write bandwidth from this memory ((Byte/Second))
system.mem_ctrls.dram.bwTotal::cpu.inst   15875374494                       # Total bandwidth to/from this memory ((Byte/Second))
system.mem_ctrls.dram.bwTotal::cpu.data    3798812715                       # Total bandwidth to/from this memory ((Byte/Second))
system.mem_ctrls.dram.bwTotal::total      19674187209                       # Total bandwidth to/from this memory ((Byte/Second))
system.mem_ctrls.dram.readBursts                    0                       # Number of DRAM read bursts (Count)
system.mem_ctrls.dram.writeBursts                   0                       # Number of DRAM write bursts (Count)
system.mem_ctrls.dram.perBankRdBursts::0            0                       # Per bank write bursts (Count)
system.mem_ctrls.dram.perBankRdBursts::1            0                       # Per bank write bursts (Count)
system.mem_ctrls.dram.perBankRdBursts::2            0                       # Per bank write bursts (Count)
system.mem_ctrls.dram.perBankRdBursts::3            0                       # Per bank write bursts (Count)
system.mem_ctrls.dram.perBankRdBursts::4            0                       # Per bank write bursts (Count)
system.mem_ctrls.dram.perBankRdBursts::5            0                       # Per bank write bursts (Count)
system.mem_ctrls.dram.perBankRdBursts::6            0                       # Per bank write bursts (Count)
system.mem_ctrls.dram.perBankRdBursts::7            0                       # Per bank write bursts (Count)
system.mem_ctrls.dram.perBankRdBursts::8            0                       # Per bank write bursts (Count)
system.mem_ctrls.dram.perBankRdBursts::9            0                       # Per bank write bursts (Count)
system.mem_ctrls.dram.perBankRdBursts::10            0                       # Per bank write bursts (Count)
system.mem_ctrls.dram.perBankRdBursts::11            0                       # Per bank write bursts (Count)
system.mem_ctrls.dram.perBankRdBursts::12            0                       # Per bank write bursts (Count)
system.mem_ctrls.dram.perBankRdBursts::13            0                       # Per bank write bursts (Count)
system.mem_ctrls.dram.perBankRdBursts::14            0                       # Per bank write bursts (Count)
system.mem_ctrls.dram.perBankRdBursts::15            0                       # Per bank write bursts (Count)
system.mem_ctrls.dram.perBankWrBursts::0            0                       # Per bank write bursts (Count)
system.mem_ctrls.dram.perBankWrBursts::1            0                       # Per bank write bursts (Count)
system.mem_ctrls.dram.perBankWrBursts::2            0                       # Per bank write bursts (Count)
system.mem_ctrls.dram.perBankWrBursts::3            0                       # Per bank write bursts (Count)
system.mem_ctrls.dram.perBankWrBursts::4            0                       # Per bank write bursts (Count)
system.mem_ctrls.dram.perBankWrBursts::5            0                       # Per bank write bursts (Count)
system.mem_ctrls.dram.perBankWrBursts::6            0                       # Per bank write bursts (Count)
system.mem_ctrls.dram.perBankWrBursts::7            0                       # Per bank write bursts (Count)
system.mem_ctrls.dram.perBankWrBursts::8            0                       # Per bank write bursts (Count)
system.mem_ctrls.dram.perBankWrBursts::9            0                       # Per bank write bursts (Count)
system.mem_ctrls.dram.perBankWrBursts::10            0                       # Per bank write bursts (Count)
system.mem_ctrls.dram.perBankWrBursts::11            0                       # Per bank write bursts (Count)
system.mem_ctrls.dram.perBankWrBursts::12            0                       # Per bank write bursts (Count)
system.mem_ctrls.dram.perBankWrBursts::13            0                       # Per bank write bursts (Count)
system.mem_ctrls.dram.perBankWrBursts::14            0                       # Per bank write bursts (Count)
system.mem_ctrls.dram.perBankWrBursts::15            0                       # Per bank write bursts (Count)
system.mem_ctrls.dram.totQLat                       0                       # Total ticks spent queuing (Tick)
system.mem_ctrls.dram.totBusLat                     0                       # Total ticks spent in databus transfers (Tick)
system.mem_ctrls.dram.totMemAccLat                  0                       # Total ticks spent from burst creation until serviced by the DRAM (Tick)
system.mem_ctrls.dram.avgQLat                     nan                       # Average queueing delay per DRAM burst ((Tick/Count))
system.mem_ctrls.dram.avgBusLat                   nan                       # Average bus latency per DRAM burst ((Tick/Count))
system.mem_ctrls.dram.avgMemAccLat                nan                       # Average memory access latency per DRAM burst ((Tick/Count))
system.mem_ctrls.dram.readRowHits                   0                       # Number of row buffer hits during reads (Count)
system.mem_ctrls.dram.writeRowHits                  0                       # Number of row buffer hits during writes (Count)
system.mem_ctrls.dram.readRowHitRate              nan                       # Row buffer hit rate for reads (Ratio)
system.mem_ctrls.dram.writeRowHitRate             nan                       # Row buffer hit rate for writes (Ratio)
system.mem_ctrls.dram.bytesRead                     0                       # Total bytes read (Byte)
system.mem_ctrls.dram.bytesWritten                  0                       # Total bytes written (Byte)
system.mem_ctrls.dram.avgRdBW                       0                       # Average DRAM read bandwidth in MiBytes/s ((Byte/Second))
system.mem_ctrls.dram.avgWrBW                       0                       # Average DRAM write bandwidth in MiBytes/s ((Byte/Second))
system.mem_ctrls.dram.peakBW                 12800.00                       # Theoretical peak bandwidth in MiByte/s ((Byte/Second))
system.mem_ctrls.dram.busUtil                    0.00                       # Data bus utilization in percentage (Ratio)
system.mem_ctrls.dram.busUtilRead                0.00                       # Data bus utilization in percentage for reads (Ratio)
system.mem_ctrls.dram.busUtilWrite               0.00                       # Data bus utilization in percentage for writes (Ratio)
system.mem_ctrls.dram.pageHitRate                 nan                       # Row buffer hit rate, read and write combined (Ratio)
system.mem_ctrls.dram.power_state.pwrStateResidencyTicks::UNDEFINED   6484162250                       # Cumulative time (in ticks) in various power states (Tick)
system.mem_ctrls.dram.rank0.actEnergy               0                       # Energy for activate commands per rank (pJ) (Joule)
system.mem_ctrls.dram.rank0.preEnergy               0                       # Energy for precharge commands per rank (pJ) (Joule)
system.mem_ctrls.dram.rank0.readEnergy              0                       # Energy for read commands per rank (pJ) (Joule)
system.mem_ctrls.dram.rank0.writeEnergy             0                       # Energy for write commands per rank (pJ) (Joule)
system.mem_ctrls.dram.rank0.refreshEnergy            0                       # Energy for refresh commands per rank (pJ) (Joule)
system.mem_ctrls.dram.rank0.actBackEnergy            0                       # Energy for active background per rank (pJ) (Joule)
system.mem_ctrls.dram.rank0.preBackEnergy   2489918400                       # Energy for precharge background per rank (pJ) (Joule)
system.mem_ctrls.dram.rank0.actPowerDownEnergy            0                       # Energy for active power-down per rank (pJ) (Joule)
system.mem_ctrls.dram.rank0.prePowerDownEnergy            0                       # Energy for precharge power-down per rank (pJ) (Joule)
system.mem_ctrls.dram.rank0.selfRefreshEnergy            0                       # Energy for self refresh per rank (pJ) (Joule)
system.mem_ctrls.dram.rank0.totalEnergy    2489918400                       # Total energy per rank (pJ) (Joule)
system.mem_ctrls.dram.rank0.averagePower   384.000015                       # Core power per rank (mW) (Watt)
system.mem_ctrls.dram.rank0.totalIdleTime            0                       # Total Idle time Per DRAM Rank (Tick)
system.mem_ctrls.dram.rank0.pwrStateTime::IDLE   6484162250                       # Time in different power states (Tick)
system.mem_ctrls.dram.rank0.pwrStateTime::REF            0                       # Time in different power states (Tick)
system.mem_ctrls.dram.rank0.pwrStateTime::SREF            0                       # Time in different power states (Tick)
system.mem_ctrls.dram.rank0.pwrStateTime::PRE_PDN            0                       # Time in different power states (Tick)
system.mem_ctrls.dram.rank0.pwrStateTime::ACT            0                       # Time in different power states (Tick)
system.mem_ctrls.dram.rank0.pwrStateTime::ACT_PDN            0                       # Time in different power states (Tick)
system.mem_ctrls.dram.rank1.actEnergy               0                       # Energy for activate commands per rank (pJ) (Joule)
system.mem_ctrls.dram.rank1.preEnergy               0                       # Energy for precharge commands per rank (pJ) (Joule)
system.mem_ctrls.dram.rank1.readEnergy              0                       # Energy for read commands per rank (pJ) (Joule)
system.mem_ctrls.dram.rank1.writeEnergy             0                       # Energy for write commands per rank (pJ) (Joule)
system.mem_ctrls.dram.rank1.refreshEnergy            0                       # Energy for refresh commands per rank (pJ) (Joule)
system.mem_ctrls.dram.rank1.actBackEnergy            0                       # Energy for active background per rank (pJ) (Joule)
system.mem_ctrls.dram.rank1.preBackEnergy   2489918400                       # Energy for precharge background per rank (pJ) (Joule)
system.mem_ctrls.dram.rank1.actPowerDownEnergy            0                       # Energy for active power-down per rank (pJ) (Joule)
system.mem_ctrls.dram.rank1.prePowerDownEnergy            0                       # Energy for precharge power-down per rank (pJ) (Joule)
system.mem_ctrls.dram.rank1.selfRefreshEnergy            0                       # Energy for self refresh per rank (pJ) (Joule)
system.mem_ctrls.dram.rank1.totalEnergy    2489918400                       # Total energy per rank (pJ) (Joule)
system.mem_ctrls.dram.rank1.averagePower   384.000015                       # Core power per rank (mW) (Watt)
system.mem_ctrls.dram.rank1.totalIdleTime            0                       # Total Idle time Per DRAM Rank (Tick)
system.mem_ctrls.dram.rank1.pwrStateTime::IDLE   6484162250                       # Time in different power states (Tick)
system.mem_ctrls.dram.rank1.pwrStateTime::REF            0                       # Time in different power states (Tick)
system.mem_ctrls.dram.rank1.pwrStateTime::SREF            0                       # Time in different power states (Tick)
system.mem_ctrls.dram.rank1.pwrStateTime::PRE_PDN            0                       # Time in different power states (Tick)
system.mem_ctrls.dram.rank1.pwrStateTime::ACT            0                       # Time in different power states (Tick)
system.mem_ctrls.dram.rank1.pwrStateTime::ACT_PDN            0                       # Time in different power states (Tick)
system.mem_ctrls.power_state.pwrStateResidencyTicks::UNDEFINED   6484162250                       # Cumulative time (in ticks) in various power states (Tick)
system.membus.transDist::ReadReq             16821347                       # Transaction distribution (Count)
system.membus.transDist::ReadResp            16821347                       # Transaction distribution (Count)
system.membus.transDist::WriteReq             1357428                       # Transaction distribution (Count)
system.membus.transDist::WriteResp            1357428                       # Transaction distribution (Count)
system.membus.pktCount_system.monitor-mem_side_port::system.mem_ctrls.port     36357550                       # Packet count per connected requestor and responder (Count)
system.membus.pktCount_system.monitor-mem_side_port::total     36357550                       # Packet count per connected requestor and responder (Count)
system.membus.pktCount::total                36357550                       # Packet count per connected requestor and responder (Count)
system.membus.pktSize_system.monitor-mem_side_port::system.mem_ctrls.port    127570622                       # Cumulative packet size per connected requestor and responder (Byte)
system.membus.pktSize_system.monitor-mem_side_port::total    127570622                       # Cumulative packet size per connected requestor and responder (Byte)
system.membus.pktSize::total                127570622                       # Cumulative packet size per connected requestor and responder (Byte)
system.membus.snoops                                0                       # Total snoops (Count)
system.membus.snoopTraffic                          0                       # Total snoop traffic (Byte)
system.membus.snoopFanout::samples           18178775                       # Request fanout histogram (Count)
system.membus.snoopFanout::mean                     0                       # Request fanout histogram (Count)
system.membus.snoopFanout::stdev                    0                       # Request fanout histogram (Count)
system.membus.snoopFanout::underflows               0      0.00%      0.00% # Request fanout histogram (Count)
system.membus.snoopFanout::0                 18178775    100.00%    100.00% # Request fanout histogram (Count)
system.membus.snoopFanout::1                        0      0.00%    100.00% # Request fanout histogram (Count)
system.membus.snoopFanout::overflows                0      0.00%    100.00% # Request fanout histogram (Count)
system.membus.snoopFanout::min_value                0                       # Request fanout histogram (Count)
system.membus.snoopFanout::max_value                0                       # Request fanout histogram (Count)
system.membus.snoopFanout::total             18178775                       # Request fanout histogram (Count)
system.membus.power_state.pwrStateResidencyTicks::UNDEFINED   6484162250                       # Cumulative time (in ticks) in various power states (Tick)
system.membus.snoop_filter.totRequests              0                       # Total number of requests made to the snoop filter. (Count)
system.membus.snoop_filter.hitSingleRequests            0                       # Number of requests hitting in the snoop filter with a single holder of the requested data. (Count)
system.membus.snoop_filter.hitMultiRequests            0                       # Number of requests hitting in the snoop filter with multiple (>1) holders of the requested data. (Count)
system.membus.snoop_filter.totSnoops                0                       # Total number of snoops made to the snoop filter. (Count)
system.membus.snoop_filter.hitSingleSnoops            0                       # Number of snoops hitting in the snoop filter with a single holder of the requested data. (Count)
system.membus.snoop_filter.hitMultiSnoops            0                       # Number of snoops hitting in the snoop filter with multiple (>1) holders of the requested data. (Count)
system.monitor.readBurstLengthHist::samples     16821347                       # Histogram of burst lengths of transmitted packets (Byte)
system.monitor.readBurstLengthHist::mean     7.193863                       # Histogram of burst lengths of transmitted packets (Byte)
system.monitor.readBurstLengthHist::gmean     6.956800                       # Histogram of burst lengths of transmitted packets (Byte)
system.monitor.readBurstLengthHist::stdev     1.604804                       # Histogram of burst lengths of transmitted packets (Byte)
system.monitor.readBurstLengthHist::0               0      0.00%      0.00% # Histogram of burst lengths of transmitted packets (Byte)
system.monitor.readBurstLengthHist::1             563      0.00%      0.00% # Histogram of burst lengths of transmitted packets (Byte)
system.monitor.readBurstLengthHist::2               0      0.00%      0.00% # Histogram of burst lengths of transmitted packets (Byte)
system.monitor.readBurstLengthHist::3               0      0.00%      0.00% # Histogram of burst lengths of transmitted packets (Byte)
system.monitor.readBurstLengthHist::4         3389093     20.15%     20.15% # Histogram of burst lengths of transmitted packets (Byte)
system.monitor.readBurstLengthHist::5               0      0.00%     20.15% # Histogram of burst lengths of transmitted packets (Byte)
system.monitor.readBurstLengthHist::6               0      0.00%     20.15% # Histogram of burst lengths of transmitted packets (Byte)
system.monitor.readBurstLengthHist::7               0      0.00%     20.15% # Histogram of burst lengths of transmitted packets (Byte)
system.monitor.readBurstLengthHist::8        13431691     79.85%    100.00% # Histogram of burst lengths of transmitted packets (Byte)
system.monitor.readBurstLengthHist::9               0      0.00%    100.00% # Histogram of burst lengths of transmitted packets (Byte)
system.monitor.readBurstLengthHist::10              0      0.00%    100.00% # Histogram of burst lengths of transmitted packets (Byte)
system.monitor.readBurstLengthHist::11              0      0.00%    100.00% # Histogram of burst lengths of transmitted packets (Byte)
system.monitor.readBurstLengthHist::12              0      0.00%    100.00% # Histogram of burst lengths of transmitted packets (Byte)
system.monitor.readBurstLengthHist::13              0      0.00%    100.00% # Histogram of burst lengths of transmitted packets (Byte)
system.monitor.readBurstLengthHist::14              0      0.00%    100.00% # Histogram of burst lengths of transmitted packets (Byte)
system.monitor.readBurstLengthHist::15              0      0.00%    100.00% # Histogram of burst lengths of transmitted packets (Byte)
system.monitor.readBurstLengthHist::16              0      0.00%    100.00% # Histogram of burst lengths of transmitted packets (Byte)
system.monitor.readBurstLengthHist::17              0      0.00%    100.00% # Histogram of burst lengths of transmitted packets (Byte)
system.monitor.readBurstLengthHist::18              0      0.00%    100.00% # Histogram of burst lengths of transmitted packets (Byte)
system.monitor.readBurstLengthHist::19              0      0.00%    100.00% # Histogram of burst lengths of transmitted packets (Byte)
system.monitor.readBurstLengthHist::total     16821347                       # Histogram of burst lengths of transmitted packets (Byte)
system.monitor.writeBurstLengthHist::samples      1357428                       # Histogram of burst lengths of transmitted packets (Byte)
system.monitor.writeBurstLengthHist::mean     4.832786                       # Histogram of burst lengths of transmitted packets (Byte)
system.monitor.writeBurstLengthHist::gmean     4.619772                       # Histogram of burst lengths of transmitted packets (Byte)
system.monitor.writeBurstLengthHist::stdev     1.626010                       # Histogram of burst lengths of transmitted packets (Byte)
system.monitor.writeBurstLengthHist::0              0      0.00%      0.00% # Histogram of burst lengths of transmitted packets (Byte)
system.monitor.writeBurstLengthHist::1            407      0.03%      0.03% # Histogram of burst lengths of transmitted packets (Byte)
system.monitor.writeBurstLengthHist::2              0      0.00%      0.03% # Histogram of burst lengths of transmitted packets (Byte)
system.monitor.writeBurstLengthHist::3              0      0.00%      0.03% # Histogram of burst lengths of transmitted packets (Byte)
system.monitor.writeBurstLengthHist::4        1074104     79.13%     79.16% # Histogram of burst lengths of transmitted packets (Byte)
system.monitor.writeBurstLengthHist::5              0      0.00%     79.16% # Histogram of burst lengths of transmitted packets (Byte)
system.monitor.writeBurstLengthHist::6              0      0.00%     79.16% # Histogram of burst lengths of transmitted packets (Byte)
system.monitor.writeBurstLengthHist::7              0      0.00%     79.16% # Histogram of burst lengths of transmitted packets (Byte)
system.monitor.writeBurstLengthHist::8         282917     20.84%    100.00% # Histogram of burst lengths of transmitted packets (Byte)
system.monitor.writeBurstLengthHist::9              0      0.00%    100.00% # Histogram of burst lengths of transmitted packets (Byte)
system.monitor.writeBurstLengthHist::10             0      0.00%    100.00% # Histogram of burst lengths of transmitted packets (Byte)
system.monitor.writeBurstLengthHist::11             0      0.00%    100.00% # Histogram of burst lengths of transmitted packets (Byte)
system.monitor.writeBurstLengthHist::12             0      0.00%    100.00% # Histogram of burst lengths of transmitted packets (Byte)
system.monitor.writeBurstLengthHist::13             0      0.00%    100.00% # Histogram of burst lengths of transmitted packets (Byte)
system.monitor.writeBurstLengthHist::14             0      0.00%    100.00% # Histogram of burst lengths of transmitted packets (Byte)
system.monitor.writeBurstLengthHist::15             0      0.00%    100.00% # Histogram of burst lengths of transmitted packets (Byte)
system.monitor.writeBurstLengthHist::16             0      0.00%    100.00% # Histogram of burst lengths of transmitted packets (Byte)
system.monitor.writeBurstLengthHist::17             0      0.00%    100.00% # Histogram of burst lengths of transmitted packets (Byte)
system.monitor.writeBurstLengthHist::18             0      0.00%    100.00% # Histogram of burst lengths of transmitted packets (Byte)
system.monitor.writeBurstLengthHist::19             0      0.00%    100.00% # Histogram of burst lengths of transmitted packets (Byte)
system.monitor.writeBurstLengthHist::total      1357428                       # Histogram of burst lengths of transmitted packets (Byte)
system.monitor.readBandwidthHist::samples            6                       # Histogram of read bandwidth per sample period ((Byte/Second))
system.monitor.readBandwidthHist::mean    18661644500                       # Histogram of read bandwidth per sample period ((Byte/Second))
system.monitor.readBandwidthHist::gmean  18647267061.871403                       # Histogram of read bandwidth per sample period ((Byte/Second))
system.monitor.readBandwidthHist::stdev  821191693.876109                       # Histogram of read bandwidth per sample period ((Byte/Second))
system.monitor.readBandwidthHist::0-1.07374e+09            0      0.00%      0.00% # Histogram of read bandwidth per sample period ((Byte/Second))
system.monitor.readBandwidthHist::1.07374e+09-2.14748e+09            0      0.00%      0.00% # Histogram of read bandwidth per sample period ((Byte/Second))
system.monitor.readBandwidthHist::2.14748e+09-3.22123e+09            0      0.00%      0.00% # Histogram of read bandwidth per sample period ((Byte/Second))
system.monitor.readBandwidthHist::3.22123e+09-4.29497e+09            0      0.00%      0.00% # Histogram of read bandwidth per sample period ((Byte/Second))
system.monitor.readBandwidthHist::4.29497e+09-5.36871e+09            0      0.00%      0.00% # Histogram of read bandwidth per sample period ((Byte/Second))
system.monitor.readBandwidthHist::5.36871e+09-6.44245e+09            0      0.00%      0.00% # Histogram of read bandwidth per sample period ((Byte/Second))
system.monitor.readBandwidthHist::6.44245e+09-7.51619e+09            0      0.00%      0.00% # Histogram of read bandwidth per sample period ((Byte/Second))
system.monitor.readBandwidthHist::7.51619e+09-8.58993e+09            0      0.00%      0.00% # Histogram of read bandwidth per sample period ((Byte/Second))
system.monitor.readBandwidthHist::8.58993e+09-9.66368e+09            0      0.00%      0.00% # Histogram of read bandwidth per sample period ((Byte/Second))
system.monitor.readBandwidthHist::9.66368e+09-1.07374e+10            0      0.00%      0.00% # Histogram of read bandwidth per sample period ((Byte/Second))
system.monitor.readBandwidthHist::1.07374e+10-1.18112e+10            0      0.00%      0.00% # Histogram of read bandwidth per sample period ((Byte/Second))
system.monitor.readBandwidthHist::1.18112e+10-1.28849e+10            0      0.00%      0.00% # Histogram of read bandwidth per sample period ((Byte/Second))
system.monitor.readBandwidthHist::1.28849e+10-1.39586e+10            0      0.00%      0.00% # Histogram of read bandwidth per sample period ((Byte/Second))
system.monitor.readBandwidthHist::1.39586e+10-1.50324e+10            0      0.00%      0.00% # Histogram of read bandwidth per sample period ((Byte/Second))
system.monitor.readBandwidthHist::1.50324e+10-1.61061e+10            0      0.00%      0.00% # Histogram of read bandwidth per sample period ((Byte/Second))
system.monitor.readBandwidthHist::1.61061e+10-1.71799e+10            0      0.00%      0.00% # Histogram of read bandwidth per sample period ((Byte/Second))
system.monitor.readBandwidthHist::1.71799e+10-1.82536e+10            0      0.00%      0.00% # Histogram of read bandwidth per sample period ((Byte/Second))
system.monitor.readBandwidthHist::1.82536e+10-1.93274e+10            5     83.33%     83.33% # Histogram of read bandwidth per sample period ((Byte/Second))
system.monitor.readBandwidthHist::1.93274e+10-2.04011e+10            1     16.67%    100.00% # Histogram of read bandwidth per sample period ((Byte/Second))
system.monitor.readBandwidthHist::2.04011e+10-2.14748e+10            0      0.00%    100.00% # Histogram of read bandwidth per sample period ((Byte/Second))
system.monitor.readBandwidthHist::total             6                       # Histogram of read bandwidth per sample period ((Byte/Second))
system.monitor.totalReadBytes               121010463                       # Number of bytes read (Byte)
system.monitor.averageReadBandwidth      18662466843.731434      0.00%      0.00% # Average read bandwidth ((Byte/Second))
system.monitor.writeBandwidthHist::samples            6                       # Histogram of write bandwidth ((Byte/Second))
system.monitor.writeBandwidthHist::mean  1014821166.666667                       # Histogram of write bandwidth ((Byte/Second))
system.monitor.writeBandwidthHist::gmean 1008571587.241947                       # Histogram of write bandwidth ((Byte/Second))
system.monitor.writeBandwidthHist::stdev 131475792.455366                       # Histogram of write bandwidth ((Byte/Second))
system.monitor.writeBandwidthHist::0-6.71089e+07            0      0.00%      0.00% # Histogram of write bandwidth ((Byte/Second))
system.monitor.writeBandwidthHist::6.71089e+07-1.34218e+08            0      0.00%      0.00% # Histogram of write bandwidth ((Byte/Second))
system.monitor.writeBandwidthHist::1.34218e+08-2.01327e+08            0      0.00%      0.00% # Histogram of write bandwidth ((Byte/Second))
system.monitor.writeBandwidthHist::2.01327e+08-2.68435e+08            0      0.00%      0.00% # Histogram of write bandwidth ((Byte/Second))
system.monitor.writeBandwidthHist::2.68435e+08-3.35544e+08            0      0.00%      0.00% # Histogram of write bandwidth ((Byte/Second))
system.monitor.writeBandwidthHist::3.35544e+08-4.02653e+08            0      0.00%      0.00% # Histogram of write bandwidth ((Byte/Second))
system.monitor.writeBandwidthHist::4.02653e+08-4.69762e+08            0      0.00%      0.00% # Histogram of write bandwidth ((Byte/Second))
system.monitor.writeBandwidthHist::4.69762e+08-5.36871e+08            0      0.00%      0.00% # Histogram of write bandwidth ((Byte/Second))
system.monitor.writeBandwidthHist::5.36871e+08-6.0398e+08            0      0.00%      0.00% # Histogram of write bandwidth ((Byte/Second))
system.monitor.writeBandwidthHist::6.0398e+08-6.71089e+08            0      0.00%      0.00% # Histogram of write bandwidth ((Byte/Second))
system.monitor.writeBandwidthHist::6.71089e+08-7.38198e+08            0      0.00%      0.00% # Histogram of write bandwidth ((Byte/Second))
system.monitor.writeBandwidthHist::7.38198e+08-8.05306e+08            0      0.00%      0.00% # Histogram of write bandwidth ((Byte/Second))
system.monitor.writeBandwidthHist::8.05306e+08-8.72415e+08            0      0.00%      0.00% # Histogram of write bandwidth ((Byte/Second))
system.monitor.writeBandwidthHist::8.72415e+08-9.39524e+08            0      0.00%      0.00% # Histogram of write bandwidth ((Byte/Second))
system.monitor.writeBandwidthHist::9.39524e+08-1.00663e+09            5     83.33%     83.33% # Histogram of write bandwidth ((Byte/Second))
system.monitor.writeBandwidthHist::1.00663e+09-1.07374e+09            0      0.00%     83.33% # Histogram of write bandwidth ((Byte/Second))
system.monitor.writeBandwidthHist::1.07374e+09-1.14085e+09            0      0.00%     83.33% # Histogram of write bandwidth ((Byte/Second))
system.monitor.writeBandwidthHist::1.14085e+09-1.20796e+09            0      0.00%     83.33% # Histogram of write bandwidth ((Byte/Second))
system.monitor.writeBandwidthHist::1.20796e+09-1.27507e+09            0      0.00%     83.33% # Histogram of write bandwidth ((Byte/Second))
system.monitor.writeBandwidthHist::1.27507e+09-1.34218e+09            1     16.67%    100.00% # Histogram of write bandwidth ((Byte/Second))
system.monitor.writeBandwidthHist::total            6                       # Histogram of write bandwidth ((Byte/Second))
system.monitor.totalWrittenBytes              6560159                       # Number of bytes written ((Byte/Second))
system.monitor.averageWriteBandwidth     1011720365.263840      0.00%      0.00% # Average write bandwidth ((Byte/Second))
system.monitor.readLatencyHist::samples      16821347                       # Read request-response latency (Tick)
system.monitor.readLatencyHist::mean            41250                       # Read request-response latency (Tick)
system.monitor.readLatencyHist::gmean    41249.999894                       # Read request-response latency (Tick)
system.monitor.readLatencyHist::stdev               0                       # Read request-response latency (Tick)
system.monitor.readLatencyHist::0-4095              0      0.00%      0.00% # Read request-response latency (Tick)
system.monitor.readLatencyHist::4096-8191            0      0.00%      0.00% # Read request-response latency (Tick)
system.monitor.readLatencyHist::8192-12287            0      0.00%      0.00% # Read request-response latency (Tick)
system.monitor.readLatencyHist::12288-16383            0      0.00%      0.00% # Read request-response latency (Tick)
system.monitor.readLatencyHist::16384-20479            0      0.00%      0.00% # Read request-response latency (Tick)
system.monitor.readLatencyHist::20480-24575            0      0.00%      0.00% # Read request-response latency (Tick)
system.monitor.readLatencyHist::24576-28671            0      0.00%      0.00% # Read request-response latency (Tick)
system.monitor.readLatencyHist::28672-32767            0      0.00%      0.00% # Read request-response latency (Tick)
system.monitor.readLatencyHist::32768-36863            0      0.00%      0.00% # Read request-response latency (Tick)
system.monitor.readLatencyHist::36864-40959            0      0.00%      0.00% # Read request-response latency (Tick)
system.monitor.readLatencyHist::40960-45055     16821347    100.00%    100.00% # Read request-response latency (Tick)
system.monitor.readLatencyHist::45056-49151            0      0.00%    100.00% # Read request-response latency (Tick)
system.monitor.readLatencyHist::49152-53247            0      0.00%    100.00% # Read request-response latency (Tick)
system.monitor.readLatencyHist::53248-57343            0      0.00%    100.00% # Read request-response latency (Tick)
system.monitor.readLatencyHist::57344-61439            0      0.00%    100.00% # Read request-response latency (Tick)
system.monitor.readLatencyHist::61440-65535            0      0.00%    100.00% # Read request-response latency (Tick)
system.monitor.readLatencyHist::65536-69631            0      0.00%    100.00% # Read request-response latency (Tick)
system.monitor.readLatencyHist::69632-73727            0      0.00%    100.00% # Read request-response latency (Tick)
system.monitor.readLatencyHist::73728-77823            0      0.00%    100.00% # Read request-response latency (Tick)
system.monitor.readLatencyHist::77824-81919            0      0.00%    100.00% # Read request-response latency (Tick)
system.monitor.readLatencyHist::total        16821347                       # Read request-response latency (Tick)
system.monitor.writeLatencyHist::samples      1357428                       # Write request-response latency (Tick)
system.monitor.writeLatencyHist::mean               0                       # Write request-response latency (Tick)
system.monitor.writeLatencyHist::gmean              0                       # Write request-response latency (Tick)
system.monitor.writeLatencyHist::stdev              0                       # Write request-response latency (Tick)
system.monitor.writeLatencyHist::0            1357428    100.00%    100.00% # Write request-response latency (Tick)
system.monitor.writeLatencyHist::1                  0      0.00%    100.00% # Write request-response latency (Tick)
system.monitor.writeLatencyHist::2                  0      0.00%    100.00% # Write request-response latency (Tick)
system.monitor.writeLatencyHist::3                  0      0.00%    100.00% # Write request-response latency (Tick)
system.monitor.writeLatencyHist::4                  0      0.00%    100.00% # Write request-response latency (Tick)
system.monitor.writeLatencyHist::5                  0      0.00%    100.00% # Write request-response latency (Tick)
system.monitor.writeLatencyHist::6                  0      0.00%    100.00% # Write request-response latency (Tick)
system.monitor.writeLatencyHist::7                  0      0.00%    100.00% # Write request-response latency (Tick)
system.monitor.writeLatencyHist::8                  0      0.00%    100.00% # Write request-response latency (Tick)
system.monitor.writeLatencyHist::9                  0      0.00%    100.00% # Write request-response latency (Tick)
system.monitor.writeLatencyHist::10                 0      0.00%    100.00% # Write request-response latency (Tick)
system.monitor.writeLatencyHist::11                 0      0.00%    100.00% # Write request-response latency (Tick)
system.monitor.writeLatencyHist::12                 0      0.00%    100.00% # Write request-response latency (Tick)
system.monitor.writeLatencyHist::13                 0      0.00%    100.00% # Write request-response latency (Tick)
system.monitor.writeLatencyHist::14                 0      0.00%    100.00% # Write request-response latency (Tick)
system.monitor.writeLatencyHist::15                 0      0.00%    100.00% # Write request-response latency (Tick)
system.monitor.writeLatencyHist::16                 0      0.00%    100.00% # Write request-response latency (Tick)
system.monitor.writeLatencyHist::17                 0      0.00%    100.00% # Write request-response latency (Tick)
system.monitor.writeLatencyHist::18                 0      0.00%    100.00% # Write request-response latency (Tick)
system.monitor.writeLatencyHist::19                 0      0.00%    100.00% # Write request-response latency (Tick)
system.monitor.writeLatencyHist::total        1357428                       # Write request-response latency (Tick)
system.monitor.ittReadRead::samples          16821345                       # Read-to-read inter transaction time (Tick)
system.monitor.ittReadRead::mean           385.472268                       # Read-to-read inter transaction time (Tick)
system.monitor.ittReadRead::stdev          800.545970                       # Read-to-read inter transaction time (Tick)
system.monitor.ittReadRead::underflows        3050242     18.13%     18.13% # Read-to-read inter transaction time (Tick)
system.monitor.ittReadRead::1-5000           13508959     80.31%     98.44% # Read-to-read inter transaction time (Tick)
system.monitor.ittReadRead::5001-10000         262144      1.56%    100.00% # Read-to-read inter transaction time (Tick)
system.monitor.ittReadRead::10001-15000             0      0.00%    100.00% # Read-to-read inter transaction time (Tick)
system.monitor.ittReadRead::15001-20000             0      0.00%    100.00% # Read-to-read inter transaction time (Tick)
system.monitor.ittReadRead::20001-25000             0      0.00%    100.00% # Read-to-read inter transaction time (Tick)
system.monitor.ittReadRead::25001-30000             0      0.00%    100.00% # Read-to-read inter transaction time (Tick)
system.monitor.ittReadRead::30001-35000             0      0.00%    100.00% # Read-to-read inter transaction time (Tick)
system.monitor.ittReadRead::35001-40000             0      0.00%    100.00% # Read-to-read inter transaction time (Tick)
system.monitor.ittReadRead::40001-45000             0      0.00%    100.00% # Read-to-read inter transaction time (Tick)
system.monitor.ittReadRead::45001-50000             0      0.00%    100.00% # Read-to-read inter transaction time (Tick)
system.monitor.ittReadRead::50001-55000             0      0.00%    100.00% # Read-to-read inter transaction time (Tick)
system.monitor.ittReadRead::55001-60000             0      0.00%    100.00% # Read-to-read inter transaction time (Tick)
system.monitor.ittReadRead::60001-65000             0      0.00%    100.00% # Read-to-read inter transaction time (Tick)
system.monitor.ittReadRead::65001-70000             0      0.00%    100.00% # Read-to-read inter transaction time (Tick)
system.monitor.ittReadRead::70001-75000             0      0.00%    100.00% # Read-to-read inter transaction time (Tick)
system.monitor.ittReadRead::75001-80000             0      0.00%    100.00% # Read-to-read inter transaction time (Tick)
system.monitor.ittReadRead::80001-85000             0      0.00%    100.00% # Read-to-read inter transaction time (Tick)
system.monitor.ittReadRead::85001-90000             0      0.00%    100.00% # Read-to-read inter transaction time (Tick)
system.monitor.ittReadRead::90001-95000             0      0.00%    100.00% # Read-to-read inter transaction time (Tick)
system.monitor.ittReadRead::95001-100000            0      0.00%    100.00% # Read-to-read inter transaction time (Tick)
system.monitor.ittReadRead::overflows               0      0.00%    100.00% # Read-to-read inter transaction time (Tick)
system.monitor.ittReadRead::min_value               0                       # Read-to-read inter transaction time (Tick)
system.monitor.ittReadRead::max_value            6500                       # Read-to-read inter transaction time (Tick)
system.monitor.ittReadRead::total            16821345                       # Read-to-read inter transaction time (Tick)
system.monitor.ittWriteWrite::samples         1357427                       # Write-to-write inter transaction time (Tick)
system.monitor.ittWriteWrite::mean        4776.802362                       # Write-to-write inter transaction time (Tick)
system.monitor.ittWriteWrite::stdev       4369.116757                       # Write-to-write inter transaction time (Tick)
system.monitor.ittWriteWrite::underflows            0      0.00%      0.00% # Write-to-write inter transaction time (Tick)
system.monitor.ittWriteWrite::1-5000           812306     59.84%     59.84% # Write-to-write inter transaction time (Tick)
system.monitor.ittWriteWrite::5001-10000       282977     20.85%     80.69% # Write-to-write inter transaction time (Tick)
system.monitor.ittWriteWrite::10001-15000       262144     19.31%    100.00% # Write-to-write inter transaction time (Tick)
system.monitor.ittWriteWrite::15001-20000            0      0.00%    100.00% # Write-to-write inter transaction time (Tick)
system.monitor.ittWriteWrite::20001-25000            0      0.00%    100.00% # Write-to-write inter transaction time (Tick)
system.monitor.ittWriteWrite::25001-30000            0      0.00%    100.00% # Write-to-write inter transaction time (Tick)
system.monitor.ittWriteWrite::30001-35000            0      0.00%    100.00% # Write-to-write inter transaction time (Tick)
system.monitor.ittWriteWrite::35001-40000            0      0.00%    100.00% # Write-to-write inter transaction time (Tick)
system.monitor.ittWriteWrite::40001-45000            0      0.00%    100.00% # Write-to-write inter transaction time (Tick)
system.monitor.ittWriteWrite::45001-50000            0      0.00%    100.00% # Write-to-write inter transaction time (Tick)
system.monitor.ittWriteWrite::50001-55000            0      0.00%    100.00% # Write-to-write inter transaction time (Tick)
system.monitor.ittWriteWrite::55001-60000            0      0.00%    100.00% # Write-to-write inter transaction time (Tick)
system.monitor.ittWriteWrite::60001-65000            0      0.00%    100.00% # Write-to-write inter transaction time (Tick)
system.monitor.ittWriteWrite::65001-70000            0      0.00%    100.00% # Write-to-write inter transaction time (Tick)
system.monitor.ittWriteWrite::70001-75000            0      0.00%    100.00% # Write-to-write inter transaction time (Tick)
system.monitor.ittWriteWrite::75001-80000            0      0.00%    100.00% # Write-to-write inter transaction time (Tick)
system.monitor.ittWriteWrite::80001-85000            0      0.00%    100.00% # Write-to-write inter transaction time (Tick)
system.monitor.ittWriteWrite::85001-90000            0      0.00%    100.00% # Write-to-write inter transaction time (Tick)
system.monitor.ittWriteWrite::90001-95000            0      0.00%    100.00% # Write-to-write inter transaction time (Tick)
system.monitor.ittWriteWrite::95001-100000            0      0.00%    100.00% # Write-to-write inter transaction time (Tick)
system.monitor.ittWriteWrite::overflows             0      0.00%    100.00% # Write-to-write inter transaction time (Tick)
system.monitor.ittWriteWrite::min_value           250                       # Write-to-write inter transaction time (Tick)
system.monitor.ittWriteWrite::max_value         13000                       # Write-to-write inter transaction time (Tick)
system.monitor.ittWriteWrite::total           1357427                       # Write-to-write inter transaction time (Tick)
system.monitor.ittReqReq::samples            18178773                       # Request-to-request inter transaction time (Tick)
system.monitor.ittReqReq::mean             356.688650                       # Request-to-request inter transaction time (Tick)
system.monitor.ittReqReq::stdev            771.378483                       # Request-to-request inter transaction time (Tick)
system.monitor.ittReqReq::underflows          3798874     20.90%     20.90% # Request-to-request inter transaction time (Tick)
system.monitor.ittReqReq::1-5000             14117755     77.66%     98.56% # Request-to-request inter transaction time (Tick)
system.monitor.ittReqReq::5001-10000           262144      1.44%    100.00% # Request-to-request inter transaction time (Tick)
system.monitor.ittReqReq::10001-15000               0      0.00%    100.00% # Request-to-request inter transaction time (Tick)
system.monitor.ittReqReq::15001-20000               0      0.00%    100.00% # Request-to-request inter transaction time (Tick)
system.monitor.ittReqReq::20001-25000               0      0.00%    100.00% # Request-to-request inter transaction time (Tick)
system.monitor.ittReqReq::25001-30000               0      0.00%    100.00% # Request-to-request inter transaction time (Tick)
system.monitor.ittReqReq::30001-35000               0      0.00%    100.00% # Request-to-request inter transaction time (Tick)
system.monitor.ittReqReq::35001-40000               0      0.00%    100.00% # Request-to-request inter transaction time (Tick)
system.monitor.ittReqReq::40001-45000               0      0.00%    100.00% # Request-to-request inter transaction time (Tick)
system.monitor.ittReqReq::45001-50000               0      0.00%    100.00% # Request-to-request inter transaction time (Tick)
system.monitor.ittReqReq::50001-55000               0      0.00%    100.00% # Request-to-request inter transaction time (Tick)
system.monitor.ittReqReq::55001-60000               0      0.00%    100.00% # Request-to-request inter transaction time (Tick)
system.monitor.ittReqReq::60001-65000               0      0.00%    100.00% # Request-to-request inter transaction time (Tick)
system.monitor.ittReqReq::65001-70000               0      0.00%    100.00% # Request-to-request inter transaction time (Tick)
system.monitor.ittReqReq::70001-75000               0      0.00%    100.00% # Request-to-request inter transaction time (Tick)
system.monitor.ittReqReq::75001-80000               0      0.00%    100.00% # Request-to-request inter transaction time (Tick)
system.monitor.ittReqReq::80001-85000               0      0.00%    100.00% # Request-to-request inter transaction time (Tick)
system.monitor.ittReqReq::85001-90000               0      0.00%    100.00% # Request-to-request inter transaction time (Tick)
system.monitor.ittReqReq::90001-95000               0      0.00%    100.00% # Request-to-request inter transaction time (Tick)
system.monitor.ittReqReq::95001-100000              0      0.00%    100.00% # Request-to-request inter transaction time (Tick)
system.monitor.ittReqReq::overflows                 0      0.00%    100.00% # Request-to-request inter transaction time (Tick)
system.monitor.ittReqReq::min_value                 0                       # Request-to-request inter transaction time (Tick)
system.monitor.ittReqReq::max_value              6500                       # Request-to-request inter transaction time (Tick)
system.monitor.ittReqReq::total              18178773                       # Request-to-request inter transaction time (Tick)
system.monitor.outstandingReadsHist::samples            6                       # Outstanding read transactions (Count)
system.monitor.outstandingReadsHist::mean            0                       # Outstanding read transactions (Count)
system.monitor.outstandingReadsHist::gmean            0                       # Outstanding read transactions (Count)
system.monitor.outstandingReadsHist::stdev            0                       # Outstanding read transactions (Count)
system.monitor.outstandingReadsHist::0              6    100.00%    100.00% # Outstanding read transactions (Count)
system.monitor.outstandingReadsHist::1              0      0.00%    100.00% # Outstanding read transactions (Count)
system.monitor.outstandingReadsHist::2              0      0.00%    100.00% # Outstanding read transactions (Count)
system.monitor.outstandingReadsHist::3              0      0.00%    100.00% # Outstanding read transactions (Count)
system.monitor.outstandingReadsHist::4              0      0.00%    100.00% # Outstanding read transactions (Count)
system.monitor.outstandingReadsHist::5              0      0.00%    100.00% # Outstanding read transactions (Count)
system.monitor.outstandingReadsHist::6              0      0.00%    100.00% # Outstanding read transactions (Count)
system.monitor.outstandingReadsHist::7              0      0.00%    100.00% # Outstanding read transactions (Count)
system.monitor.outstandingReadsHist::8              0      0.00%    100.00% # Outstanding read transactions (Count)
system.monitor.outstandingReadsHist::9              0      0.00%    100.00% # Outstanding read transactions (Count)
system.monitor.outstandingReadsHist::10             0      0.00%    100.00% # Outstanding read transactions (Count)
system.monitor.outstandingReadsHist::11             0      0.00%    100.00% # Outstanding read transactions (Count)
system.monitor.outstandingReadsHist::12             0      0.00%    100.00% # Outstanding read transactions (Count)
system.monitor.outstandingReadsHist::13             0      0.00%    100.00% # Outstanding read transactions (Count)
system.monitor.outstandingReadsHist::14             0      0.00%    100.00% # Outstanding read transactions (Count)
system.monitor.outstandingReadsHist::15             0      0.00%    100.00% # Outstanding read transactions (Count)
system.monitor.outstandingReadsHist::16             0      0.00%    100.00% # Outstanding read transactions (Count)
system.monitor.outstandingReadsHist::17             0      0.00%    100.00% # Outstanding read transactions (Count)
system.monitor.outstandingReadsHist::18             0      0.00%    100.00% # Outstanding read transactions (Count)
system.monitor.outstandingReadsHist::19             0      0.00%    100.00% # Outstanding read transactions (Count)
system.monitor.outstandingReadsHist::total            6                       # Outstanding read transactions (Count)
system.monitor.outstandingWritesHist::samples            6                       # Outstanding write transactions (Count)
system.monitor.outstandingWritesHist::mean            0                       # Outstanding write transactions (Count)
system.monitor.outstandingWritesHist::gmean            0                       # Outstanding write transactions (Count)
system.monitor.outstandingWritesHist::stdev            0                       # Outstanding write transactions (Count)
system.monitor.outstandingWritesHist::0             6    100.00%    100.00% # Outstanding write transactions (Count)
system.monitor.outstandingWritesHist::1             0      0.00%    100.00% # Outstanding write transactions (Count)
system.monitor.outstandingWritesHist::2             0      0.00%    100.00% # Outstanding write transactions (Count)
system.monitor.outstandingWritesHist::3             0      0.00%    100.00% # Outstanding write transactions (Count)
system.monitor.outstandingWritesHist::4             0      0.00%    100.00% # Outstanding write transactions (Count)
system.monitor.outstandingWritesHist::5             0      0.00%    100.00% # Outstanding write transactions (Count)
system.monitor.outstandingWritesHist::6             0      0.00%    100.00% # Outstanding write transactions (Count)
system.monitor.outstandingWritesHist::7             0      0.00%    100.00% # Outstanding write transactions (Count)
system.monitor.outstandingWritesHist::8             0      0.00%    100.00% # Outstanding write transactions (Count)
system.monitor.outstandingWritesHist::9             0      0.00%    100.00% # Outstanding write transactions (Count)
system.monitor.outstandingWritesHist::10            0      0.00%    100.00% # Outstanding write transactions (Count)
system.monitor.outstandingWritesHist::11            0      0.00%    100.00% # Outstanding write transactions (Count)
system.monitor.outstandingWritesHist::12            0      0.00%    100.00% # Outstanding write transactions (Count)
system.monitor.outstandingWritesHist::13            0      0.00%    100.00% # Outstanding write transactions (Count)
system.monitor.outstandingWritesHist::14            0      0.00%    100.00% # Outstanding write transactions (Count)
system.monitor.outstandingWritesHist::15            0      0.00%    100.00% # Outstanding write transactions (Count)
system.monitor.outstandingWritesHist::16            0      0.00%    100.00% # Outstanding write transactions (Count)
system.monitor.outstandingWritesHist::17            0      0.00%    100.00% # Outstanding write transactions (Count)
system.monitor.outstandingWritesHist::18            0      0.00%    100.00% # Outstanding write transactions (Count)
system.monitor.outstandingWritesHist::19            0      0.00%    100.00% # Outstanding write transactions (Count)
system.monitor.outstandingWritesHist::total            6                       # Outstanding write transactions (Count)
system.monitor.readTransHist::samples               6                       # Histogram of read transactions per sample period (Count)
system.monitor.readTransHist::mean       2593969.166667                       # Histogram of read transactions per sample period (Count)
system.monitor.readTransHist::gmean      2591977.490376                       # Histogram of read transactions per sample period (Count)
system.monitor.readTransHist::stdev      113947.243113                       # Histogram of read transactions per sample period (Count)
system.monitor.readTransHist::0-262143              0      0.00%      0.00% # Histogram of read transactions per sample period (Count)
system.monitor.readTransHist::262144-524287            0      0.00%      0.00% # Histogram of read transactions per sample period (Count)
system.monitor.readTransHist::524288-786431            0      0.00%      0.00% # Histogram of read transactions per sample period (Count)
system.monitor.readTransHist::786432-1.04858e+06            0      0.00%      0.00% # Histogram of read transactions per sample period (Count)
system.monitor.readTransHist::1.04858e+06-1.31072e+06            0      0.00%      0.00% # Histogram of read transactions per sample period (Count)
system.monitor.readTransHist::1.31072e+06-1.57286e+06            0      0.00%      0.00% # Histogram of read transactions per sample period (Count)
system.monitor.readTransHist::1.57286e+06-1.83501e+06            0      0.00%      0.00% # Histogram of read transactions per sample period (Count)
system.monitor.readTransHist::1.83501e+06-2.09715e+06            0      0.00%      0.00% # Histogram of read transactions per sample period (Count)
system.monitor.readTransHist::2.09715e+06-2.3593e+06            0      0.00%      0.00% # Histogram of read transactions per sample period (Count)
system.monitor.readTransHist::2.3593e+06-2.62144e+06            5     83.33%     83.33% # Histogram of read transactions per sample period (Count)
system.monitor.readTransHist::2.62144e+06-2.88358e+06            1     16.67%    100.00% # Histogram of read transactions per sample period (Count)
system.monitor.readTransHist::2.88358e+06-3.14573e+06            0      0.00%    100.00% # Histogram of read transactions per sample period (Count)
system.monitor.readTransHist::3.14573e+06-3.40787e+06            0      0.00%    100.00% # Histogram of read transactions per sample period (Count)
system.monitor.readTransHist::3.40787e+06-3.67002e+06            0      0.00%    100.00% # Histogram of read transactions per sample period (Count)
system.monitor.readTransHist::3.67002e+06-3.93216e+06            0      0.00%    100.00% # Histogram of read transactions per sample period (Count)
system.monitor.readTransHist::3.93216e+06-4.1943e+06            0      0.00%    100.00% # Histogram of read transactions per sample period (Count)
system.monitor.readTransHist::4.1943e+06-4.45645e+06            0      0.00%    100.00% # Histogram of read transactions per sample period (Count)
system.monitor.readTransHist::4.45645e+06-4.71859e+06            0      0.00%    100.00% # Histogram of read transactions per sample period (Count)
system.monitor.readTransHist::4.71859e+06-4.98074e+06            0      0.00%    100.00% # Histogram of read transactions per sample period (Count)
system.monitor.readTransHist::4.98074e+06-5.24288e+06            0      0.00%    100.00% # Histogram of read transactions per sample period (Count)
system.monitor.readTransHist::total                 6                       # Histogram of read transactions per sample period (Count)
system.monitor.writeTransHist::samples              6                       # Histogram of write transactions per sample period (Count)
system.monitor.writeTransHist::mean      210198.833333                       # Histogram of write transactions per sample period (Count)
system.monitor.writeTransHist::gmean     207545.367383                       # Histogram of write transactions per sample period (Count)
system.monitor.writeTransHist::stdev     40012.986649                       # Histogram of write transactions per sample period (Count)
system.monitor.writeTransHist::0-16383              0      0.00%      0.00% # Histogram of write transactions per sample period (Count)
system.monitor.writeTransHist::16384-32767            0      0.00%      0.00% # Histogram of write transactions per sample period (Count)
system.monitor.writeTransHist::32768-49151            0      0.00%      0.00% # Histogram of write transactions per sample period (Count)
system.monitor.writeTransHist::49152-65535            0      0.00%      0.00% # Histogram of write transactions per sample period (Count)
system.monitor.writeTransHist::65536-81919            0      0.00%      0.00% # Histogram of write transactions per sample period (Count)
system.monitor.writeTransHist::81920-98303            0      0.00%      0.00% # Histogram of write transactions per sample period (Count)
system.monitor.writeTransHist::98304-114687            0      0.00%      0.00% # Histogram of write transactions per sample period (Count)
system.monitor.writeTransHist::114688-131071            0      0.00%      0.00% # Histogram of write transactions per sample period (Count)
system.monitor.writeTransHist::131072-147455            0      0.00%      0.00% # Histogram of write transactions per sample period (Count)
system.monitor.writeTransHist::147456-163839            0      0.00%      0.00% # Histogram of write transactions per sample period (Count)
system.monitor.writeTransHist::163840-180223            0      0.00%      0.00% # Histogram of write transactions per sample period (Count)
system.monitor.writeTransHist::180224-196607            5     83.33%     83.33% # Histogram of write transactions per sample period (Count)
system.monitor.writeTransHist::196608-212991            0      0.00%     83.33% # Histogram of write transactions per sample period (Count)
system.monitor.writeTransHist::212992-229375            0      0.00%     83.33% # Histogram of write transactions per sample period (Count)
system.monitor.writeTransHist::229376-245759            0      0.00%     83.33% # Histogram of write transactions per sample period (Count)
system.monitor.writeTransHist::245760-262143            0      0.00%     83.33% # Histogram of write transactions per sample period (Count)
system.monitor.writeTransHist::262144-278527            0      0.00%     83.33% # Histogram of write transactions per sample period (Count)
system.monitor.writeTransHist::278528-294911            1     16.67%    100.00% # Histogram of write transactions per sample period (Count)
system.monitor.writeTransHist::294912-311295            0      0.00%    100.00% # Histogram of write transactions per sample period (Count)
system.monitor.writeTransHist::311296-327679            0      0.00%    100.00% # Histogram of write transactions per sample period (Count)
system.monitor.writeTransHist::total                6                       # Histogram of write transactions per sample period (Count)
system.to_monitor_bus.transDist::ReadReq     16821347                       # Transaction distribution (Count)
system.to_monitor_bus.transDist::ReadResp     16821347                       # Transaction distribution (Count)
system.to_monitor_bus.transDist::WriteReq      1357428                       # Transaction distribution (Count)
system.to_monitor_bus.transDist::WriteResp      1357428                       # Transaction distribution (Count)
system.to_monitor_bus.pktCount_system.cpu.icache_port::system.monitor-cpu_side_port     25734626                       # Packet count per connected requestor and responder (Count)
system.to_monitor_bus.pktCount_system.cpu.dcache_port::system.monitor-cpu_side_port     10622924                       # Packet count per connected requestor and responder (Count)
system.to_monitor_bus.pktCount::total        36357550                       # Packet count per connected requestor and responder (Count)
system.to_monitor_bus.pktSize_system.cpu.icache_port::system.monitor-cpu_side_port    102938504                       # Cumulative packet size per connected requestor and responder (Byte)
system.to_monitor_bus.pktSize_system.cpu.dcache_port::system.monitor-cpu_side_port     24632118                       # Cumulative packet size per connected requestor and responder (Byte)
system.to_monitor_bus.pktSize::total        127570622                       # Cumulative packet size per connected requestor and responder (Byte)
system.to_monitor_bus.snoops                        0                       # Total snoops (Count)
system.to_monitor_bus.snoopTraffic                  0                       # Total snoop traffic (Byte)
system.to_monitor_bus.snoopFanout::samples     18178775                       # Request fanout histogram (Count)
system.to_monitor_bus.snoopFanout::mean             0                       # Request fanout histogram (Count)
system.to_monitor_bus.snoopFanout::stdev            0                       # Request fanout histogram (Count)
system.to_monitor_bus.snoopFanout::underflows            0      0.00%      0.00% # Request fanout histogram (Count)
system.to_monitor_bus.snoopFanout::0         18178775    100.00%    100.00% # Request fanout histogram (Count)
system.to_monitor_bus.snoopFanout::1                0      0.00%    100.00% # Request fanout histogram (Count)
system.to_monitor_bus.snoopFanout::overflows            0      0.00%    100.00% # Request fanout histogram (Count)
system.to_monitor_bus.snoopFanout::min_value            0                       # Request fanout histogram (Count)
system.to_monitor_bus.snoopFanout::max_value            0                       # Request fanout histogram (Count)
system.to_monitor_bus.snoopFanout::total     18178775                       # Request fanout histogram (Count)
system.to_monitor_bus.power_state.pwrStateResidencyTicks::UNDEFINED   6484162250                       # Cumulative time (in ticks) in various power states (Tick)
system.to_monitor_bus.snoop_filter.totRequests            0                       # Total number of requests made to the snoop filter. (Count)
system.to_monitor_bus.snoop_filter.hitSingleRequests            0                       # Number of requests hitting in the snoop filter with a single holder of the requested data. (Count)
system.to_monitor_bus.snoop_filter.hitMultiRequests            0                       # Number of requests hitting in the snoop filter with multiple (>1) holders of the requested data. (Count)
system.to_monitor_bus.snoop_filter.totSnoops            0                       # Total number of snoops made to the snoop filter. (Count)
system.to_monitor_bus.snoop_filter.hitSingleSnoops            0                       # Number of snoops hitting in the snoop filter with a single holder of the requested data. (Count)
system.to_monitor_bus.snoop_filter.hitMultiSnoops            0                       # Number of snoops hitting in the snoop filter with multiple (>1) holders of the requested data. (Count)
system.voltage_domain.voltage                       1                       # Voltage in Volts (Volt)
system.workload.inst.arm                            0                       # number of arm instructions executed (Count)
system.workload.inst.quiesce                        0                       # number of quiesce instructions executed (Count)

---------- End Simulation Statistics   ----------
