Global frequency set at 1000000000000 ticks per second
gem5 Simulator System.  https://www.gem5.org
gem5 is copyrighted software; use the --copyright option for details.

gem5 version 22.0.0.1
gem5 compiled Apr 16 2026 19:16:31
gem5 started Apr 17 2026 21:04:39
gem5 executing on ece511, pid 25681
command line: build/X86/gem5.opt --outdir=../graph_workloads/m5out_graph_coarsening/ configs/example/se.py --cpu-type=AtomicSimpleCPU --cpu-clock=4GHz --cacheline_size=64 --num-cpus=1 --cmd=../graph_workloads/graph_coarsening

Beginning simulation!
EXIT: tick=66761250 cause=workbegin code=0
ITER_BEGIN t=0 tick=66761250
EXIT: tick=368506500 cause=workend code=0
ITER_END   t=0 tick=368506500
EXIT: tick=368514250 cause=workbegin code=1
ITER_BEGIN t=1 tick=368514250
EXIT: tick=484770500 cause=workend code=1
ITER_END   t=1 tick=484770500
EXIT: tick=484778250 cause=workbegin code=2
ITER_BEGIN t=2 tick=484778250
EXIT: tick=545163250 cause=workend code=2
ITER_END   t=2 tick=545163250
EXIT: tick=545171000 cause=workbegin code=3
ITER_BEGIN t=3 tick=545171000
EXIT: tick=587415250 cause=workend code=3
ITER_END   t=3 tick=587415250
EXIT: tick=587423000 cause=workbegin code=4
ITER_BEGIN t=4 tick=587423000
EXIT: tick=621872250 cause=workend code=4
ITER_END   t=4 tick=621872250
EXIT: tick=621880000 cause=workbegin code=5
ITER_BEGIN t=5 tick=621880000
EXIT: tick=652014500 cause=workend code=5
ITER_END   t=5 tick=652014500
EXIT: tick=652023000 cause=exiting with last active thread context code=0
Program finished at tick 652023000
