Global frequency set at 1000000000000 ticks per second
gem5 Simulator System.  https://www.gem5.org
gem5 is copyrighted software; use the --copyright option for details.

gem5 version 22.0.0.1
gem5 compiled Apr 16 2026 19:16:31
gem5 started Apr 17 2026 14:01:09
gem5 executing on ece511, pid 8216
command line: build/X86/gem5.opt --outdir=../graph_workloads/m5out_graph_coarsening/ configs/example/se.py --cpu-type=AtomicSimpleCPU --cpu-clock=4GHz --cacheline_size=64 --num-cpus=1 --cmd=../graph_workloads/graph_coarsening

Beginning simulation!
EXIT: tick=26784250 cause=workbegin code=0
ITER_BEGIN t=0 tick=26784250
EXIT: tick=294839500 cause=workend code=0
ITER_END   t=0 tick=294839500
EXIT: tick=294846750 cause=workbegin code=1
ITER_BEGIN t=1 tick=294846750
EXIT: tick=397650250 cause=workend code=1
ITER_END   t=1 tick=397650250
EXIT: tick=397657500 cause=workbegin code=2
ITER_BEGIN t=2 tick=397657500
EXIT: tick=444708500 cause=workend code=2
ITER_END   t=2 tick=444708500
EXIT: tick=444715750 cause=workbegin code=3
ITER_BEGIN t=3 tick=444715750
EXIT: tick=470711500 cause=workend code=3
ITER_END   t=3 tick=470711500
EXIT: tick=470718750 cause=workbegin code=4
ITER_BEGIN t=4 tick=470718750
EXIT: tick=487465000 cause=workend code=4
ITER_END   t=4 tick=487465000
EXIT: tick=487472250 cause=workbegin code=5
ITER_BEGIN t=5 tick=487472250
EXIT: tick=499362000 cause=workend code=5
ITER_END   t=5 tick=499362000
EXIT: tick=499369250 cause=workbegin code=6
ITER_BEGIN t=6 tick=499369250
EXIT: tick=508924500 cause=workend code=6
ITER_END   t=6 tick=508924500
EXIT: tick=509021250 cause=exiting with last active thread context code=0
Program finished at tick 509021250
