
---------- Begin Simulation Statistics ----------
simSeconds                                   0.002723                       # Number of seconds simulated (Second)
simTicks                                   2723038000                       # Number of ticks simulated (Tick)
finalTick                                  2723038000                       # Number of ticks from beginning of simulation (restored from checkpoints and never reset) (Tick)
simFreq                                  1000000000000                       # The number of ticks per simulated second ((Tick/Second))
hostSeconds                                      4.26                       # Real time elapsed on the host (Second)
hostTickRate                                638558001                       # The number of ticks simulated per host second (ticks/s) ((Tick/Second))
hostMemory                                    2194188                       # Number of bytes of host memory used (Byte)
simInsts                                      2210424                       # Number of instructions simulated (Count)
simOps                                        2210424                       # Number of ops (including micro ops) simulated (Count)
hostInstRate                                   518332                       # Simulator instruction rate (inst/s) ((Count/Second))
hostOpRate                                     518331                       # Simulator op (including micro ops) rate (op/s) ((Count/Second))
system.clk_domain.clock                          1000                       # Clock period in ticks (Tick)
system.cpu.numCycles                          2723039                       # Number of cpu cycles simulated (Cycle)
system.cpu.numWorkItemsStarted                      0                       # Number of work items this cpu started (Count)
system.cpu.numWorkItemsCompleted                    0                       # Number of work items this cpu completed (Count)
system.cpu.exec_context.thread_0.numInsts      2210424                       # Number of instructions committed (Count)
system.cpu.exec_context.thread_0.numOps       2210424                       # Number of ops (including micro ops) committed (Count)
system.cpu.exec_context.thread_0.numIntAluAccesses      2139528                       # Number of integer alu accesses (Count)
system.cpu.exec_context.thread_0.numFpAluAccesses            0                       # Number of float alu accesses (Count)
system.cpu.exec_context.thread_0.numVecAluAccesses            0                       # Number of vector alu accesses (Count)
system.cpu.exec_context.thread_0.numCallsReturns         5197                       # Number of times a function call or return occured (Count)
system.cpu.exec_context.thread_0.numCondCtrlInsts       153187                       # Number of instructions that are conditional controls (Count)
system.cpu.exec_context.thread_0.numIntInsts      2139528                       # Number of integer instructions (Count)
system.cpu.exec_context.thread_0.numFpInsts            0                       # Number of float instructions (Count)
system.cpu.exec_context.thread_0.numVecInsts            0                       # Number of vector instructions (Count)
system.cpu.exec_context.thread_0.numIntRegReads      2486063                       # Number of times the integer registers were read (Count)
system.cpu.exec_context.thread_0.numIntRegWrites      1780929                       # Number of times the integer registers were written (Count)
system.cpu.exec_context.thread_0.numFpRegReads            0                       # Number of times the floating registers were read (Count)
system.cpu.exec_context.thread_0.numFpRegWrites            0                       # Number of times the floating registers were written (Count)
system.cpu.exec_context.thread_0.numVecRegReads            0                       # Number of times the vector registers were read (Count)
system.cpu.exec_context.thread_0.numVecRegWrites            0                       # Number of times the vector registers were written (Count)
system.cpu.exec_context.thread_0.numVecPredRegReads            0                       # Number of times the predicate registers were read (Count)
system.cpu.exec_context.thread_0.numVecPredRegWrites            0                       # Number of times the predicate registers were written (Count)
system.cpu.exec_context.thread_0.numMiscRegReads            1                       # Number of times the Misc registers were read (Count)
system.cpu.exec_context.thread_0.numMiscRegWrites            0                       # Number of times the Misc registers were written (Count)
system.cpu.exec_context.thread_0.numMemRefs       783769                       # Number of memory refs (Count)
system.cpu.exec_context.thread_0.numLoadInsts       629383                       # Number of load instructions (Count)
system.cpu.exec_context.thread_0.numStoreInsts       154386                       # Number of store instructions (Count)
system.cpu.exec_context.thread_0.numIdleCycles     0.001000                       # Number of idle cycles (Cycle)
system.cpu.exec_context.thread_0.numBusyCycles 2723038.999000                       # Number of busy cycles (Cycle)
system.cpu.exec_context.thread_0.notIdleFraction     1.000000                       # Percentage of non-idle cycles (Ratio)
system.cpu.exec_context.thread_0.idleFraction     0.000000                       # Percentage of idle cycles (Ratio)
system.cpu.exec_context.thread_0.numBranches       229282                       # Number of branches fetched (Count)
system.cpu.exec_context.thread_0.statExecutedInstType::No_OpClass            1      0.00%      0.00% # Class of executed instruction. (Count)
system.cpu.exec_context.thread_0.statExecutedInstType::IntAlu      1421513     64.31%     64.31% # Class of executed instruction. (Count)
system.cpu.exec_context.thread_0.statExecutedInstType::IntMult         2584      0.12%     64.43% # Class of executed instruction. (Count)
system.cpu.exec_context.thread_0.statExecutedInstType::IntDiv         2560      0.12%     64.54% # Class of executed instruction. (Count)
system.cpu.exec_context.thread_0.statExecutedInstType::FloatAdd            0      0.00%     64.54% # Class of executed instruction. (Count)
system.cpu.exec_context.thread_0.statExecutedInstType::FloatCmp            0      0.00%     64.54% # Class of executed instruction. (Count)
system.cpu.exec_context.thread_0.statExecutedInstType::FloatCvt            0      0.00%     64.54% # Class of executed instruction. (Count)
system.cpu.exec_context.thread_0.statExecutedInstType::FloatMult            0      0.00%     64.54% # Class of executed instruction. (Count)
system.cpu.exec_context.thread_0.statExecutedInstType::FloatMultAcc            0      0.00%     64.54% # Class of executed instruction. (Count)
system.cpu.exec_context.thread_0.statExecutedInstType::FloatDiv            0      0.00%     64.54% # Class of executed instruction. (Count)
system.cpu.exec_context.thread_0.statExecutedInstType::FloatMisc            0      0.00%     64.54% # Class of executed instruction. (Count)
system.cpu.exec_context.thread_0.statExecutedInstType::FloatSqrt            0      0.00%     64.54% # Class of executed instruction. (Count)
system.cpu.exec_context.thread_0.statExecutedInstType::SimdAdd            0      0.00%     64.54% # Class of executed instruction. (Count)
system.cpu.exec_context.thread_0.statExecutedInstType::SimdAddAcc            0      0.00%     64.54% # Class of executed instruction. (Count)
system.cpu.exec_context.thread_0.statExecutedInstType::SimdAlu            0      0.00%     64.54% # Class of executed instruction. (Count)
system.cpu.exec_context.thread_0.statExecutedInstType::SimdCmp            0      0.00%     64.54% # Class of executed instruction. (Count)
system.cpu.exec_context.thread_0.statExecutedInstType::SimdCvt            0      0.00%     64.54% # Class of executed instruction. (Count)
system.cpu.exec_context.thread_0.statExecutedInstType::SimdMisc            0      0.00%     64.54% # Class of executed instruction. (Count)
system.cpu.exec_context.thread_0.statExecutedInstType::SimdMult            0      0.00%     64.54% # Class of executed instruction. (Count)
system.cpu.exec_context.thread_0.statExecutedInstType::SimdMultAcc            0      0.00%     64.54% # Class of executed instruction. (Count)
system.cpu.exec_context.thread_0.statExecutedInstType::SimdShift            0      0.00%     64.54% # Class of executed instruction. (Count)
system.cpu.exec_context.thread_0.statExecutedInstType::SimdShiftAcc            0      0.00%     64.54% # Class of executed instruction. (Count)
system.cpu.exec_context.thread_0.statExecutedInstType::SimdDiv            0      0.00%     64.54% # Class of executed instruction. (Count)
system.cpu.exec_context.thread_0.statExecutedInstType::SimdSqrt            0      0.00%     64.54% # Class of executed instruction. (Count)
system.cpu.exec_context.thread_0.statExecutedInstType::SimdFloatAdd            0      0.00%     64.54% # Class of executed instruction. (Count)
system.cpu.exec_context.thread_0.statExecutedInstType::SimdFloatAlu            0      0.00%     64.54% # Class of executed instruction. (Count)
system.cpu.exec_context.thread_0.statExecutedInstType::SimdFloatCmp            0      0.00%     64.54% # Class of executed instruction. (Count)
system.cpu.exec_context.thread_0.statExecutedInstType::SimdFloatCvt            0      0.00%     64.54% # Class of executed instruction. (Count)
system.cpu.exec_context.thread_0.statExecutedInstType::SimdFloatDiv            0      0.00%     64.54% # Class of executed instruction. (Count)
system.cpu.exec_context.thread_0.statExecutedInstType::SimdFloatMisc            0      0.00%     64.54% # Class of executed instruction. (Count)
system.cpu.exec_context.thread_0.statExecutedInstType::SimdFloatMult            0      0.00%     64.54% # Class of executed instruction. (Count)
system.cpu.exec_context.thread_0.statExecutedInstType::SimdFloatMultAcc            0      0.00%     64.54% # Class of executed instruction. (Count)
system.cpu.exec_context.thread_0.statExecutedInstType::SimdFloatSqrt            0      0.00%     64.54% # Class of executed instruction. (Count)
system.cpu.exec_context.thread_0.statExecutedInstType::SimdReduceAdd            0      0.00%     64.54% # Class of executed instruction. (Count)
system.cpu.exec_context.thread_0.statExecutedInstType::SimdReduceAlu            0      0.00%     64.54% # Class of executed instruction. (Count)
system.cpu.exec_context.thread_0.statExecutedInstType::SimdReduceCmp            0      0.00%     64.54% # Class of executed instruction. (Count)
system.cpu.exec_context.thread_0.statExecutedInstType::SimdFloatReduceAdd            0      0.00%     64.54% # Class of executed instruction. (Count)
system.cpu.exec_context.thread_0.statExecutedInstType::SimdFloatReduceCmp            0      0.00%     64.54% # Class of executed instruction. (Count)
system.cpu.exec_context.thread_0.statExecutedInstType::SimdAes            0      0.00%     64.54% # Class of executed instruction. (Count)
system.cpu.exec_context.thread_0.statExecutedInstType::SimdAesMix            0      0.00%     64.54% # Class of executed instruction. (Count)
system.cpu.exec_context.thread_0.statExecutedInstType::SimdSha1Hash            0      0.00%     64.54% # Class of executed instruction. (Count)
system.cpu.exec_context.thread_0.statExecutedInstType::SimdSha1Hash2            0      0.00%     64.54% # Class of executed instruction. (Count)
system.cpu.exec_context.thread_0.statExecutedInstType::SimdSha256Hash            0      0.00%     64.54% # Class of executed instruction. (Count)
system.cpu.exec_context.thread_0.statExecutedInstType::SimdSha256Hash2            0      0.00%     64.54% # Class of executed instruction. (Count)
system.cpu.exec_context.thread_0.statExecutedInstType::SimdShaSigma2            0      0.00%     64.54% # Class of executed instruction. (Count)
system.cpu.exec_context.thread_0.statExecutedInstType::SimdShaSigma3            0      0.00%     64.54% # Class of executed instruction. (Count)
system.cpu.exec_context.thread_0.statExecutedInstType::SimdPredAlu            0      0.00%     64.54% # Class of executed instruction. (Count)
system.cpu.exec_context.thread_0.statExecutedInstType::MemRead       629383     28.47%     93.02% # Class of executed instruction. (Count)
system.cpu.exec_context.thread_0.statExecutedInstType::MemWrite       154386      6.98%    100.00% # Class of executed instruction. (Count)
system.cpu.exec_context.thread_0.statExecutedInstType::FloatMemRead            0      0.00%    100.00% # Class of executed instruction. (Count)
system.cpu.exec_context.thread_0.statExecutedInstType::FloatMemWrite            0      0.00%    100.00% # Class of executed instruction. (Count)
system.cpu.exec_context.thread_0.statExecutedInstType::IprAccess            0      0.00%    100.00% # Class of executed instruction. (Count)
system.cpu.exec_context.thread_0.statExecutedInstType::InstPrefetch            0      0.00%    100.00% # Class of executed instruction. (Count)
system.cpu.exec_context.thread_0.statExecutedInstType::total      2210427                       # Class of executed instruction. (Count)
system.cpu.mmu.dtb.readHits                         0                       # read hits (Count)
system.cpu.mmu.dtb.readMisses                       0                       # read misses (Count)
system.cpu.mmu.dtb.readAccesses                     0                       # read accesses (Count)
system.cpu.mmu.dtb.writeHits                        0                       # write hits (Count)
system.cpu.mmu.dtb.writeMisses                      0                       # write misses (Count)
system.cpu.mmu.dtb.writeAccesses                    0                       # write accesses (Count)
system.cpu.mmu.dtb.hits                             0                       # Total TLB (read and write) hits (Count)
system.cpu.mmu.dtb.misses                           0                       # Total TLB (read and write) misses (Count)
system.cpu.mmu.dtb.accesses                         0                       # Total TLB (read and write) accesses (Count)
system.cpu.mmu.dtb.walker.power_state.pwrStateResidencyTicks::UNDEFINED   2723038000                       # Cumulative time (in ticks) in various power states (Tick)
system.cpu.mmu.itb.readHits                         0                       # read hits (Count)
system.cpu.mmu.itb.readMisses                       0                       # read misses (Count)
system.cpu.mmu.itb.readAccesses                     0                       # read accesses (Count)
system.cpu.mmu.itb.writeHits                        0                       # write hits (Count)
system.cpu.mmu.itb.writeMisses                      0                       # write misses (Count)
system.cpu.mmu.itb.writeAccesses                    0                       # write accesses (Count)
system.cpu.mmu.itb.hits                             0                       # Total TLB (read and write) hits (Count)
system.cpu.mmu.itb.misses                           0                       # Total TLB (read and write) misses (Count)
system.cpu.mmu.itb.accesses                         0                       # Total TLB (read and write) accesses (Count)
system.cpu.mmu.itb.walker.power_state.pwrStateResidencyTicks::UNDEFINED   2723038000                       # Cumulative time (in ticks) in various power states (Tick)
system.cpu.power_state.pwrStateResidencyTicks::ON   2723038000                       # Cumulative time (in ticks) in various power states (Tick)
system.cpu.thread_0.numInsts                        0                       # Number of Instructions committed (Count)
system.cpu.thread_0.numOps                          0                       # Number of Ops committed (Count)
system.cpu.thread_0.numMemRefs                      0                       # Number of Memory References (Count)
system.cpu.workload.numSyscalls                     1                       # Number of system calls (Count)
system.cpu_clk_domain.clock                      1000                       # Clock period in ticks (Tick)
system.cpu_voltage_domain.voltage                   1                       # Voltage in Volts (Volt)
system.mem_ctrls.priorityMinLatency      0.000000000000                       # per QoS priority minimum request to response latency (Second)
system.mem_ctrls.priorityMaxLatency      0.000000000000                       # per QoS priority maximum request to response latency (Second)
system.mem_ctrls.numReadWriteTurnArounds            0                       # Number of turnarounds from READ to WRITE (Count)
system.mem_ctrls.numWriteReadTurnArounds            0                       # Number of turnarounds from WRITE to READ (Count)
system.mem_ctrls.numStayReadState                   0                       # Number of times bus staying in READ state (Count)
system.mem_ctrls.numStayWriteState                  0                       # Number of times bus staying in WRITE state (Count)
system.mem_ctrls.readReqs                           0                       # Number of read requests accepted (Count)
system.mem_ctrls.writeReqs                          0                       # Number of write requests accepted (Count)
system.mem_ctrls.readBursts                         0                       # Number of controller read bursts, including those serviced by the write queue (Count)
system.mem_ctrls.writeBursts                        0                       # Number of controller write bursts, including those merged in the write queue (Count)
system.mem_ctrls.servicedByWrQ                      0                       # Number of controller read bursts serviced by the write queue (Count)
system.mem_ctrls.mergedWrBursts                     0                       # Number of controller write bursts merged with an existing one (Count)
system.mem_ctrls.neitherReadNorWriteReqs            0                       # Number of requests that are neither read nor write (Count)
system.mem_ctrls.avgRdQLen                       0.00                       # Average read queue length when enqueuing ((Count/Tick))
system.mem_ctrls.avgWrQLen                       0.00                       # Average write queue length when enqueuing ((Count/Tick))
system.mem_ctrls.numRdRetry                         0                       # Number of times read queue was full causing retry (Count)
system.mem_ctrls.numWrRetry                         0                       # Number of times write queue was full causing retry (Count)
system.mem_ctrls.readPktSize::0                     0                       # Read request sizes (log2) (Count)
system.mem_ctrls.readPktSize::1                     0                       # Read request sizes (log2) (Count)
system.mem_ctrls.readPktSize::2                     0                       # Read request sizes (log2) (Count)
system.mem_ctrls.readPktSize::3                     0                       # Read request sizes (log2) (Count)
system.mem_ctrls.readPktSize::4                     0                       # Read request sizes (log2) (Count)
system.mem_ctrls.readPktSize::5                     0                       # Read request sizes (log2) (Count)
system.mem_ctrls.readPktSize::6                     0                       # Read request sizes (log2) (Count)
system.mem_ctrls.writePktSize::0                    0                       # Write request sizes (log2) (Count)
system.mem_ctrls.writePktSize::1                    0                       # Write request sizes (log2) (Count)
system.mem_ctrls.writePktSize::2                    0                       # Write request sizes (log2) (Count)
system.mem_ctrls.writePktSize::3                    0                       # Write request sizes (log2) (Count)
system.mem_ctrls.writePktSize::4                    0                       # Write request sizes (log2) (Count)
system.mem_ctrls.writePktSize::5                    0                       # Write request sizes (log2) (Count)
system.mem_ctrls.writePktSize::6                    0                       # Write request sizes (log2) (Count)
system.mem_ctrls.rdQLenPdf::0                       0                       # What read queue length does an incoming req see (Count)
system.mem_ctrls.rdQLenPdf::1                       0                       # What read queue length does an incoming req see (Count)
system.mem_ctrls.rdQLenPdf::2                       0                       # What read queue length does an incoming req see (Count)
system.mem_ctrls.rdQLenPdf::3                       0                       # What read queue length does an incoming req see (Count)
system.mem_ctrls.rdQLenPdf::4                       0                       # What read queue length does an incoming req see (Count)
system.mem_ctrls.rdQLenPdf::5                       0                       # What read queue length does an incoming req see (Count)
system.mem_ctrls.rdQLenPdf::6                       0                       # What read queue length does an incoming req see (Count)
system.mem_ctrls.rdQLenPdf::7                       0                       # What read queue length does an incoming req see (Count)
system.mem_ctrls.rdQLenPdf::8                       0                       # What read queue length does an incoming req see (Count)
system.mem_ctrls.rdQLenPdf::9                       0                       # What read queue length does an incoming req see (Count)
system.mem_ctrls.rdQLenPdf::10                      0                       # What read queue length does an incoming req see (Count)
system.mem_ctrls.rdQLenPdf::11                      0                       # What read queue length does an incoming req see (Count)
system.mem_ctrls.rdQLenPdf::12                      0                       # What read queue length does an incoming req see (Count)
system.mem_ctrls.rdQLenPdf::13                      0                       # What read queue length does an incoming req see (Count)
system.mem_ctrls.rdQLenPdf::14                      0                       # What read queue length does an incoming req see (Count)
system.mem_ctrls.rdQLenPdf::15                      0                       # What read queue length does an incoming req see (Count)
system.mem_ctrls.rdQLenPdf::16                      0                       # What read queue length does an incoming req see (Count)
system.mem_ctrls.rdQLenPdf::17                      0                       # What read queue length does an incoming req see (Count)
system.mem_ctrls.rdQLenPdf::18                      0                       # What read queue length does an incoming req see (Count)
system.mem_ctrls.rdQLenPdf::19                      0                       # What read queue length does an incoming req see (Count)
system.mem_ctrls.rdQLenPdf::20                      0                       # What read queue length does an incoming req see (Count)
system.mem_ctrls.rdQLenPdf::21                      0                       # What read queue length does an incoming req see (Count)
system.mem_ctrls.rdQLenPdf::22                      0                       # What read queue length does an incoming req see (Count)
system.mem_ctrls.rdQLenPdf::23                      0                       # What read queue length does an incoming req see (Count)
system.mem_ctrls.rdQLenPdf::24                      0                       # What read queue length does an incoming req see (Count)
system.mem_ctrls.rdQLenPdf::25                      0                       # What read queue length does an incoming req see (Count)
system.mem_ctrls.rdQLenPdf::26                      0                       # What read queue length does an incoming req see (Count)
system.mem_ctrls.rdQLenPdf::27                      0                       # What read queue length does an incoming req see (Count)
system.mem_ctrls.rdQLenPdf::28                      0                       # What read queue length does an incoming req see (Count)
system.mem_ctrls.rdQLenPdf::29                      0                       # What read queue length does an incoming req see (Count)
system.mem_ctrls.rdQLenPdf::30                      0                       # What read queue length does an incoming req see (Count)
system.mem_ctrls.rdQLenPdf::31                      0                       # What read queue length does an incoming req see (Count)
system.mem_ctrls.wrQLenPdf::0                       0                       # What write queue length does an incoming req see (Count)
system.mem_ctrls.wrQLenPdf::1                       0                       # What write queue length does an incoming req see (Count)
system.mem_ctrls.wrQLenPdf::2                       0                       # What write queue length does an incoming req see (Count)
system.mem_ctrls.wrQLenPdf::3                       0                       # What write queue length does an incoming req see (Count)
system.mem_ctrls.wrQLenPdf::4                       0                       # What write queue length does an incoming req see (Count)
system.mem_ctrls.wrQLenPdf::5                       0                       # What write queue length does an incoming req see (Count)
system.mem_ctrls.wrQLenPdf::6                       0                       # What write queue length does an incoming req see (Count)
system.mem_ctrls.wrQLenPdf::7                       0                       # What write queue length does an incoming req see (Count)
system.mem_ctrls.wrQLenPdf::8                       0                       # What write queue length does an incoming req see (Count)
system.mem_ctrls.wrQLenPdf::9                       0                       # What write queue length does an incoming req see (Count)
system.mem_ctrls.wrQLenPdf::10                      0                       # What write queue length does an incoming req see (Count)
system.mem_ctrls.wrQLenPdf::11                      0                       # What write queue length does an incoming req see (Count)
system.mem_ctrls.wrQLenPdf::12                      0                       # What write queue length does an incoming req see (Count)
system.mem_ctrls.wrQLenPdf::13                      0                       # What write queue length does an incoming req see (Count)
system.mem_ctrls.wrQLenPdf::14                      0                       # What write queue length does an incoming req see (Count)
system.mem_ctrls.wrQLenPdf::15                      0                       # What write queue length does an incoming req see (Count)
system.mem_ctrls.wrQLenPdf::16                      0                       # What write queue length does an incoming req see (Count)
system.mem_ctrls.wrQLenPdf::17                      0                       # What write queue length does an incoming req see (Count)
system.mem_ctrls.wrQLenPdf::18                      0                       # What write queue length does an incoming req see (Count)
system.mem_ctrls.wrQLenPdf::19                      0                       # What write queue length does an incoming req see (Count)
system.mem_ctrls.wrQLenPdf::20                      0                       # What write queue length does an incoming req see (Count)
system.mem_ctrls.wrQLenPdf::21                      0                       # What write queue length does an incoming req see (Count)
system.mem_ctrls.wrQLenPdf::22                      0                       # What write queue length does an incoming req see (Count)
system.mem_ctrls.wrQLenPdf::23                      0                       # What write queue length does an incoming req see (Count)
system.mem_ctrls.wrQLenPdf::24                      0                       # What write queue length does an incoming req see (Count)
system.mem_ctrls.wrQLenPdf::25                      0                       # What write queue length does an incoming req see (Count)
system.mem_ctrls.wrQLenPdf::26                      0                       # What write queue length does an incoming req see (Count)
system.mem_ctrls.wrQLenPdf::27                      0                       # What write queue length does an incoming req see (Count)
system.mem_ctrls.wrQLenPdf::28                      0                       # What write queue length does an incoming req see (Count)
system.mem_ctrls.wrQLenPdf::29                      0                       # What write queue length does an incoming req see (Count)
system.mem_ctrls.wrQLenPdf::30                      0                       # What write queue length does an incoming req see (Count)
system.mem_ctrls.wrQLenPdf::31                      0                       # What write queue length does an incoming req see (Count)
system.mem_ctrls.wrQLenPdf::32                      0                       # What write queue length does an incoming req see (Count)
system.mem_ctrls.wrQLenPdf::33                      0                       # What write queue length does an incoming req see (Count)
system.mem_ctrls.wrQLenPdf::34                      0                       # What write queue length does an incoming req see (Count)
system.mem_ctrls.wrQLenPdf::35                      0                       # What write queue length does an incoming req see (Count)
system.mem_ctrls.wrQLenPdf::36                      0                       # What write queue length does an incoming req see (Count)
system.mem_ctrls.wrQLenPdf::37                      0                       # What write queue length does an incoming req see (Count)
system.mem_ctrls.wrQLenPdf::38                      0                       # What write queue length does an incoming req see (Count)
system.mem_ctrls.wrQLenPdf::39                      0                       # What write queue length does an incoming req see (Count)
system.mem_ctrls.wrQLenPdf::40                      0                       # What write queue length does an incoming req see (Count)
system.mem_ctrls.wrQLenPdf::41                      0                       # What write queue length does an incoming req see (Count)
system.mem_ctrls.wrQLenPdf::42                      0                       # What write queue length does an incoming req see (Count)
system.mem_ctrls.wrQLenPdf::43                      0                       # What write queue length does an incoming req see (Count)
system.mem_ctrls.wrQLenPdf::44                      0                       # What write queue length does an incoming req see (Count)
system.mem_ctrls.wrQLenPdf::45                      0                       # What write queue length does an incoming req see (Count)
system.mem_ctrls.wrQLenPdf::46                      0                       # What write queue length does an incoming req see (Count)
system.mem_ctrls.wrQLenPdf::47                      0                       # What write queue length does an incoming req see (Count)
system.mem_ctrls.wrQLenPdf::48                      0                       # What write queue length does an incoming req see (Count)
system.mem_ctrls.wrQLenPdf::49                      0                       # What write queue length does an incoming req see (Count)
system.mem_ctrls.wrQLenPdf::50                      0                       # What write queue length does an incoming req see (Count)
system.mem_ctrls.wrQLenPdf::51                      0                       # What write queue length does an incoming req see (Count)
system.mem_ctrls.wrQLenPdf::52                      0                       # What write queue length does an incoming req see (Count)
system.mem_ctrls.wrQLenPdf::53                      0                       # What write queue length does an incoming req see (Count)
system.mem_ctrls.wrQLenPdf::54                      0                       # What write queue length does an incoming req see (Count)
system.mem_ctrls.wrQLenPdf::55                      0                       # What write queue length does an incoming req see (Count)
system.mem_ctrls.wrQLenPdf::56                      0                       # What write queue length does an incoming req see (Count)
system.mem_ctrls.wrQLenPdf::57                      0                       # What write queue length does an incoming req see (Count)
system.mem_ctrls.wrQLenPdf::58                      0                       # What write queue length does an incoming req see (Count)
system.mem_ctrls.wrQLenPdf::59                      0                       # What write queue length does an incoming req see (Count)
system.mem_ctrls.wrQLenPdf::60                      0                       # What write queue length does an incoming req see (Count)
system.mem_ctrls.wrQLenPdf::61                      0                       # What write queue length does an incoming req see (Count)
system.mem_ctrls.wrQLenPdf::62                      0                       # What write queue length does an incoming req see (Count)
system.mem_ctrls.wrQLenPdf::63                      0                       # What write queue length does an incoming req see (Count)
system.mem_ctrls.bytesReadWrQ                       0                       # Total number of bytes read from write queue (Byte)
system.mem_ctrls.bytesReadSys                       0                       # Total read bytes from the system interface side (Byte)
system.mem_ctrls.bytesWrittenSys                    0                       # Total written bytes from the system interface side (Byte)
system.mem_ctrls.avgRdBWSys                0.00000000                       # Average system read bandwidth in Byte/s ((Byte/Second))
system.mem_ctrls.avgWrBWSys                0.00000000                       # Average system write bandwidth in Byte/s ((Byte/Second))
system.mem_ctrls.totGap                             0                       # Total gap between requests (Tick)
system.mem_ctrls.avgGap                           nan                       # Average gap between requests ((Tick/Count))
system.mem_ctrls.dram.bytesRead::cpu.inst     10892156                       # Number of bytes read from this memory (Byte)
system.mem_ctrls.dram.bytesRead::cpu.data      2873184                       # Number of bytes read from this memory (Byte)
system.mem_ctrls.dram.bytesRead::total       13765340                       # Number of bytes read from this memory (Byte)
system.mem_ctrls.dram.bytesInstRead::cpu.inst     10892156                       # Number of instructions bytes read from this memory (Byte)
system.mem_ctrls.dram.bytesInstRead::total     10892156                       # Number of instructions bytes read from this memory (Byte)
system.mem_ctrls.dram.bytesWritten::cpu.data       628028                       # Number of bytes written to this memory (Byte)
system.mem_ctrls.dram.bytesWritten::total       628028                       # Number of bytes written to this memory (Byte)
system.mem_ctrls.dram.numReads::cpu.inst      2723039                       # Number of read requests responded to by this memory (Count)
system.mem_ctrls.dram.numReads::cpu.data       629383                       # Number of read requests responded to by this memory (Count)
system.mem_ctrls.dram.numReads::total         3352422                       # Number of read requests responded to by this memory (Count)
system.mem_ctrls.dram.numWrites::cpu.data       154384                       # Number of write requests responded to by this memory (Count)
system.mem_ctrls.dram.numWrites::total         154384                       # Number of write requests responded to by this memory (Count)
system.mem_ctrls.dram.bwRead::cpu.inst     4000001469                       # Total read bandwidth from this memory ((Byte/Second))
system.mem_ctrls.dram.bwRead::cpu.data     1055139150                       # Total read bandwidth from this memory ((Byte/Second))
system.mem_ctrls.dram.bwRead::total        5055140619                       # Total read bandwidth from this memory ((Byte/Second))
system.mem_ctrls.dram.bwInstRead::cpu.inst   4000001469                       # Instruction read bandwidth from this memory ((Byte/Second))
system.mem_ctrls.dram.bwInstRead::total    4000001469                       # Instruction read bandwidth from this memory ((Byte/Second))
system.mem_ctrls.dram.bwWrite::cpu.data     230635048                       # Write bandwidth from this memory ((Byte/Second))
system.mem_ctrls.dram.bwWrite::total        230635048                       # Write bandwidth from this memory ((Byte/Second))
system.mem_ctrls.dram.bwTotal::cpu.inst    4000001469                       # Total bandwidth to/from this memory ((Byte/Second))
system.mem_ctrls.dram.bwTotal::cpu.data    1285774198                       # Total bandwidth to/from this memory ((Byte/Second))
system.mem_ctrls.dram.bwTotal::total       5285775667                       # Total bandwidth to/from this memory ((Byte/Second))
system.mem_ctrls.dram.readBursts                    0                       # Number of DRAM read bursts (Count)
system.mem_ctrls.dram.writeBursts                   0                       # Number of DRAM write bursts (Count)
system.mem_ctrls.dram.perBankRdBursts::0            0                       # Per bank write bursts (Count)
system.mem_ctrls.dram.perBankRdBursts::1            0                       # Per bank write bursts (Count)
system.mem_ctrls.dram.perBankRdBursts::2            0                       # Per bank write bursts (Count)
system.mem_ctrls.dram.perBankRdBursts::3            0                       # Per bank write bursts (Count)
system.mem_ctrls.dram.perBankRdBursts::4            0                       # Per bank write bursts (Count)
system.mem_ctrls.dram.perBankRdBursts::5            0                       # Per bank write bursts (Count)
system.mem_ctrls.dram.perBankRdBursts::6            0                       # Per bank write bursts (Count)
system.mem_ctrls.dram.perBankRdBursts::7            0                       # Per bank write bursts (Count)
system.mem_ctrls.dram.perBankRdBursts::8            0                       # Per bank write bursts (Count)
system.mem_ctrls.dram.perBankRdBursts::9            0                       # Per bank write bursts (Count)
system.mem_ctrls.dram.perBankRdBursts::10            0                       # Per bank write bursts (Count)
system.mem_ctrls.dram.perBankRdBursts::11            0                       # Per bank write bursts (Count)
system.mem_ctrls.dram.perBankRdBursts::12            0                       # Per bank write bursts (Count)
system.mem_ctrls.dram.perBankRdBursts::13            0                       # Per bank write bursts (Count)
system.mem_ctrls.dram.perBankRdBursts::14            0                       # Per bank write bursts (Count)
system.mem_ctrls.dram.perBankRdBursts::15            0                       # Per bank write bursts (Count)
system.mem_ctrls.dram.perBankWrBursts::0            0                       # Per bank write bursts (Count)
system.mem_ctrls.dram.perBankWrBursts::1            0                       # Per bank write bursts (Count)
system.mem_ctrls.dram.perBankWrBursts::2            0                       # Per bank write bursts (Count)
system.mem_ctrls.dram.perBankWrBursts::3            0                       # Per bank write bursts (Count)
system.mem_ctrls.dram.perBankWrBursts::4            0                       # Per bank write bursts (Count)
system.mem_ctrls.dram.perBankWrBursts::5            0                       # Per bank write bursts (Count)
system.mem_ctrls.dram.perBankWrBursts::6            0                       # Per bank write bursts (Count)
system.mem_ctrls.dram.perBankWrBursts::7            0                       # Per bank write bursts (Count)
system.mem_ctrls.dram.perBankWrBursts::8            0                       # Per bank write bursts (Count)
system.mem_ctrls.dram.perBankWrBursts::9            0                       # Per bank write bursts (Count)
system.mem_ctrls.dram.perBankWrBursts::10            0                       # Per bank write bursts (Count)
system.mem_ctrls.dram.perBankWrBursts::11            0                       # Per bank write bursts (Count)
system.mem_ctrls.dram.perBankWrBursts::12            0                       # Per bank write bursts (Count)
system.mem_ctrls.dram.perBankWrBursts::13            0                       # Per bank write bursts (Count)
system.mem_ctrls.dram.perBankWrBursts::14            0                       # Per bank write bursts (Count)
system.mem_ctrls.dram.perBankWrBursts::15            0                       # Per bank write bursts (Count)
system.mem_ctrls.dram.totQLat                       0                       # Total ticks spent queuing (Tick)
system.mem_ctrls.dram.totBusLat                     0                       # Total ticks spent in databus transfers (Tick)
system.mem_ctrls.dram.totMemAccLat                  0                       # Total ticks spent from burst creation until serviced by the DRAM (Tick)
system.mem_ctrls.dram.avgQLat                     nan                       # Average queueing delay per DRAM burst ((Tick/Count))
system.mem_ctrls.dram.avgBusLat                   nan                       # Average bus latency per DRAM burst ((Tick/Count))
system.mem_ctrls.dram.avgMemAccLat                nan                       # Average memory access latency per DRAM burst ((Tick/Count))
system.mem_ctrls.dram.readRowHits                   0                       # Number of row buffer hits during reads (Count)
system.mem_ctrls.dram.writeRowHits                  0                       # Number of row buffer hits during writes (Count)
system.mem_ctrls.dram.readRowHitRate              nan                       # Row buffer hit rate for reads (Ratio)
system.mem_ctrls.dram.writeRowHitRate             nan                       # Row buffer hit rate for writes (Ratio)
system.mem_ctrls.dram.bytesRead                     0                       # Total bytes read (Byte)
system.mem_ctrls.dram.bytesWritten                  0                       # Total bytes written (Byte)
system.mem_ctrls.dram.avgRdBW                       0                       # Average DRAM read bandwidth in MiBytes/s ((Byte/Second))
system.mem_ctrls.dram.avgWrBW                       0                       # Average DRAM write bandwidth in MiBytes/s ((Byte/Second))
system.mem_ctrls.dram.peakBW                 12800.00                       # Theoretical peak bandwidth in MiByte/s ((Byte/Second))
system.mem_ctrls.dram.busUtil                    0.00                       # Data bus utilization in percentage (Ratio)
system.mem_ctrls.dram.busUtilRead                0.00                       # Data bus utilization in percentage for reads (Ratio)
system.mem_ctrls.dram.busUtilWrite               0.00                       # Data bus utilization in percentage for writes (Ratio)
system.mem_ctrls.dram.pageHitRate                 nan                       # Row buffer hit rate, read and write combined (Ratio)
system.mem_ctrls.dram.power_state.pwrStateResidencyTicks::UNDEFINED   2723038000                       # Cumulative time (in ticks) in various power states (Tick)
system.mem_ctrls.dram.rank0.actEnergy               0                       # Energy for activate commands per rank (pJ) (Joule)
system.mem_ctrls.dram.rank0.preEnergy               0                       # Energy for precharge commands per rank (pJ) (Joule)
system.mem_ctrls.dram.rank0.readEnergy              0                       # Energy for read commands per rank (pJ) (Joule)
system.mem_ctrls.dram.rank0.writeEnergy             0                       # Energy for write commands per rank (pJ) (Joule)
system.mem_ctrls.dram.rank0.refreshEnergy            0                       # Energy for refresh commands per rank (pJ) (Joule)
system.mem_ctrls.dram.rank0.actBackEnergy            0                       # Energy for active background per rank (pJ) (Joule)
system.mem_ctrls.dram.rank0.preBackEnergy   1045646880                       # Energy for precharge background per rank (pJ) (Joule)
system.mem_ctrls.dram.rank0.actPowerDownEnergy            0                       # Energy for active power-down per rank (pJ) (Joule)
system.mem_ctrls.dram.rank0.prePowerDownEnergy            0                       # Energy for precharge power-down per rank (pJ) (Joule)
system.mem_ctrls.dram.rank0.selfRefreshEnergy            0                       # Energy for self refresh per rank (pJ) (Joule)
system.mem_ctrls.dram.rank0.totalEnergy    1045646880                       # Total energy per rank (pJ) (Joule)
system.mem_ctrls.dram.rank0.averagePower   384.000106                       # Core power per rank (mW) (Watt)
system.mem_ctrls.dram.rank0.totalIdleTime            0                       # Total Idle time Per DRAM Rank (Tick)
system.mem_ctrls.dram.rank0.pwrStateTime::IDLE   2723038000                       # Time in different power states (Tick)
system.mem_ctrls.dram.rank0.pwrStateTime::REF            0                       # Time in different power states (Tick)
system.mem_ctrls.dram.rank0.pwrStateTime::SREF            0                       # Time in different power states (Tick)
system.mem_ctrls.dram.rank0.pwrStateTime::PRE_PDN            0                       # Time in different power states (Tick)
system.mem_ctrls.dram.rank0.pwrStateTime::ACT            0                       # Time in different power states (Tick)
system.mem_ctrls.dram.rank0.pwrStateTime::ACT_PDN            0                       # Time in different power states (Tick)
system.mem_ctrls.dram.rank1.actEnergy               0                       # Energy for activate commands per rank (pJ) (Joule)
system.mem_ctrls.dram.rank1.preEnergy               0                       # Energy for precharge commands per rank (pJ) (Joule)
system.mem_ctrls.dram.rank1.readEnergy              0                       # Energy for read commands per rank (pJ) (Joule)
system.mem_ctrls.dram.rank1.writeEnergy             0                       # Energy for write commands per rank (pJ) (Joule)
system.mem_ctrls.dram.rank1.refreshEnergy            0                       # Energy for refresh commands per rank (pJ) (Joule)
system.mem_ctrls.dram.rank1.actBackEnergy            0                       # Energy for active background per rank (pJ) (Joule)
system.mem_ctrls.dram.rank1.preBackEnergy   1045646880                       # Energy for precharge background per rank (pJ) (Joule)
system.mem_ctrls.dram.rank1.actPowerDownEnergy            0                       # Energy for active power-down per rank (pJ) (Joule)
system.mem_ctrls.dram.rank1.prePowerDownEnergy            0                       # Energy for precharge power-down per rank (pJ) (Joule)
system.mem_ctrls.dram.rank1.selfRefreshEnergy            0                       # Energy for self refresh per rank (pJ) (Joule)
system.mem_ctrls.dram.rank1.totalEnergy    1045646880                       # Total energy per rank (pJ) (Joule)
system.mem_ctrls.dram.rank1.averagePower   384.000106                       # Core power per rank (mW) (Watt)
system.mem_ctrls.dram.rank1.totalIdleTime            0                       # Total Idle time Per DRAM Rank (Tick)
system.mem_ctrls.dram.rank1.pwrStateTime::IDLE   2723038000                       # Time in different power states (Tick)
system.mem_ctrls.dram.rank1.pwrStateTime::REF            0                       # Time in different power states (Tick)
system.mem_ctrls.dram.rank1.pwrStateTime::SREF            0                       # Time in different power states (Tick)
system.mem_ctrls.dram.rank1.pwrStateTime::PRE_PDN            0                       # Time in different power states (Tick)
system.mem_ctrls.dram.rank1.pwrStateTime::ACT            0                       # Time in different power states (Tick)
system.mem_ctrls.dram.rank1.pwrStateTime::ACT_PDN            0                       # Time in different power states (Tick)
system.mem_ctrls.power_state.pwrStateResidencyTicks::UNDEFINED   2723038000                       # Cumulative time (in ticks) in various power states (Tick)
system.membus.transDist::ReadReq              3352422                       # Transaction distribution (Count)
system.membus.transDist::ReadResp             3352422                       # Transaction distribution (Count)
system.membus.transDist::WriteReq              154384                       # Transaction distribution (Count)
system.membus.transDist::WriteResp             154384                       # Transaction distribution (Count)
system.membus.pktCount_system.monitor-mem_side_port::system.mem_ctrls.port      7013612                       # Packet count per connected requestor and responder (Count)
system.membus.pktCount::total                 7013612                       # Packet count per connected requestor and responder (Count)
system.membus.pktSize_system.monitor-mem_side_port::system.mem_ctrls.port     14393368                       # Cumulative packet size per connected requestor and responder (Byte)
system.membus.pktSize::total                 14393368                       # Cumulative packet size per connected requestor and responder (Byte)
system.membus.snoops                                0                       # Total snoops (Count)
system.membus.snoopTraffic                          0                       # Total snoop traffic (Byte)
system.membus.snoopFanout::samples            3506806                       # Request fanout histogram (Count)
system.membus.snoopFanout::mean                     0                       # Request fanout histogram (Count)
system.membus.snoopFanout::stdev                    0                       # Request fanout histogram (Count)
system.membus.snoopFanout::underflows               0      0.00%      0.00% # Request fanout histogram (Count)
system.membus.snoopFanout::0                  3506806    100.00%    100.00% # Request fanout histogram (Count)
system.membus.snoopFanout::1                        0      0.00%    100.00% # Request fanout histogram (Count)
system.membus.snoopFanout::overflows                0      0.00%    100.00% # Request fanout histogram (Count)
system.membus.snoopFanout::min_value                0                       # Request fanout histogram (Count)
system.membus.snoopFanout::max_value                0                       # Request fanout histogram (Count)
system.membus.snoopFanout::total              3506806                       # Request fanout histogram (Count)
system.membus.power_state.pwrStateResidencyTicks::UNDEFINED   2723038000                       # Cumulative time (in ticks) in various power states (Tick)
system.membus.snoop_filter.totRequests              0                       # Total number of requests made to the snoop filter. (Count)
system.membus.snoop_filter.hitSingleRequests            0                       # Number of requests hitting in the snoop filter with a single holder of the requested data. (Count)
system.membus.snoop_filter.hitMultiRequests            0                       # Number of requests hitting in the snoop filter with multiple (>1) holders of the requested data. (Count)
system.membus.snoop_filter.totSnoops                0                       # Total number of snoops made to the snoop filter. (Count)
system.membus.snoop_filter.hitSingleSnoops            0                       # Number of snoops hitting in the snoop filter with a single holder of the requested data. (Count)
system.membus.snoop_filter.hitMultiSnoops            0                       # Number of snoops hitting in the snoop filter with multiple (>1) holders of the requested data. (Count)
system.monitor.readBurstLengthHist::samples      3352422                       # Histogram of burst lengths of transmitted packets (Byte)
system.monitor.readBurstLengthHist::mean     4.106088                       # Histogram of burst lengths of transmitted packets (Byte)
system.monitor.readBurstLengthHist::gmean     4.074215                       # Histogram of burst lengths of transmitted packets (Byte)
system.monitor.readBurstLengthHist::stdev     0.642727                       # Histogram of burst lengths of transmitted packets (Byte)
system.monitor.readBurstLengthHist::0               0      0.00%      0.00% # Histogram of burst lengths of transmitted packets (Byte)
system.monitor.readBurstLengthHist::1               0      0.00%      0.00% # Histogram of burst lengths of transmitted packets (Byte)
system.monitor.readBurstLengthHist::2               0      0.00%      0.00% # Histogram of burst lengths of transmitted packets (Byte)
system.monitor.readBurstLengthHist::3               0      0.00%      0.00% # Histogram of burst lengths of transmitted packets (Byte)
system.monitor.readBurstLengthHist::4         3263509     97.35%     97.35% # Histogram of burst lengths of transmitted packets (Byte)
system.monitor.readBurstLengthHist::5               0      0.00%     97.35% # Histogram of burst lengths of transmitted packets (Byte)
system.monitor.readBurstLengthHist::6               0      0.00%     97.35% # Histogram of burst lengths of transmitted packets (Byte)
system.monitor.readBurstLengthHist::7               0      0.00%     97.35% # Histogram of burst lengths of transmitted packets (Byte)
system.monitor.readBurstLengthHist::8           88913      2.65%    100.00% # Histogram of burst lengths of transmitted packets (Byte)
system.monitor.readBurstLengthHist::9               0      0.00%    100.00% # Histogram of burst lengths of transmitted packets (Byte)
system.monitor.readBurstLengthHist::10              0      0.00%    100.00% # Histogram of burst lengths of transmitted packets (Byte)
system.monitor.readBurstLengthHist::11              0      0.00%    100.00% # Histogram of burst lengths of transmitted packets (Byte)
system.monitor.readBurstLengthHist::12              0      0.00%    100.00% # Histogram of burst lengths of transmitted packets (Byte)
system.monitor.readBurstLengthHist::13              0      0.00%    100.00% # Histogram of burst lengths of transmitted packets (Byte)
system.monitor.readBurstLengthHist::14              0      0.00%    100.00% # Histogram of burst lengths of transmitted packets (Byte)
system.monitor.readBurstLengthHist::15              0      0.00%    100.00% # Histogram of burst lengths of transmitted packets (Byte)
system.monitor.readBurstLengthHist::16              0      0.00%    100.00% # Histogram of burst lengths of transmitted packets (Byte)
system.monitor.readBurstLengthHist::17              0      0.00%    100.00% # Histogram of burst lengths of transmitted packets (Byte)
system.monitor.readBurstLengthHist::18              0      0.00%    100.00% # Histogram of burst lengths of transmitted packets (Byte)
system.monitor.readBurstLengthHist::19              0      0.00%    100.00% # Histogram of burst lengths of transmitted packets (Byte)
system.monitor.readBurstLengthHist::total      3352422                       # Histogram of burst lengths of transmitted packets (Byte)
system.monitor.writeBurstLengthHist::samples       154384                       # Histogram of burst lengths of transmitted packets (Byte)
system.monitor.writeBurstLengthHist::mean     4.067960                       # Histogram of burst lengths of transmitted packets (Byte)
system.monitor.writeBurstLengthHist::gmean     4.047385                       # Histogram of burst lengths of transmitted packets (Byte)
system.monitor.writeBurstLengthHist::stdev     0.516938                       # Histogram of burst lengths of transmitted packets (Byte)
system.monitor.writeBurstLengthHist::0              0      0.00%      0.00% # Histogram of burst lengths of transmitted packets (Byte)
system.monitor.writeBurstLengthHist::1              0      0.00%      0.00% # Histogram of burst lengths of transmitted packets (Byte)
system.monitor.writeBurstLengthHist::2              0      0.00%      0.00% # Histogram of burst lengths of transmitted packets (Byte)
system.monitor.writeBurstLengthHist::3              0      0.00%      0.00% # Histogram of burst lengths of transmitted packets (Byte)
system.monitor.writeBurstLengthHist::4         151761     98.30%     98.30% # Histogram of burst lengths of transmitted packets (Byte)
system.monitor.writeBurstLengthHist::5              0      0.00%     98.30% # Histogram of burst lengths of transmitted packets (Byte)
system.monitor.writeBurstLengthHist::6              0      0.00%     98.30% # Histogram of burst lengths of transmitted packets (Byte)
system.monitor.writeBurstLengthHist::7              0      0.00%     98.30% # Histogram of burst lengths of transmitted packets (Byte)
system.monitor.writeBurstLengthHist::8           2623      1.70%    100.00% # Histogram of burst lengths of transmitted packets (Byte)
system.monitor.writeBurstLengthHist::9              0      0.00%    100.00% # Histogram of burst lengths of transmitted packets (Byte)
system.monitor.writeBurstLengthHist::10             0      0.00%    100.00% # Histogram of burst lengths of transmitted packets (Byte)
system.monitor.writeBurstLengthHist::11             0      0.00%    100.00% # Histogram of burst lengths of transmitted packets (Byte)
system.monitor.writeBurstLengthHist::12             0      0.00%    100.00% # Histogram of burst lengths of transmitted packets (Byte)
system.monitor.writeBurstLengthHist::13             0      0.00%    100.00% # Histogram of burst lengths of transmitted packets (Byte)
system.monitor.writeBurstLengthHist::14             0      0.00%    100.00% # Histogram of burst lengths of transmitted packets (Byte)
system.monitor.writeBurstLengthHist::15             0      0.00%    100.00% # Histogram of burst lengths of transmitted packets (Byte)
system.monitor.writeBurstLengthHist::16             0      0.00%    100.00% # Histogram of burst lengths of transmitted packets (Byte)
system.monitor.writeBurstLengthHist::17             0      0.00%    100.00% # Histogram of burst lengths of transmitted packets (Byte)
system.monitor.writeBurstLengthHist::18             0      0.00%    100.00% # Histogram of burst lengths of transmitted packets (Byte)
system.monitor.writeBurstLengthHist::19             0      0.00%    100.00% # Histogram of burst lengths of transmitted packets (Byte)
system.monitor.writeBurstLengthHist::total       154384                       # Histogram of burst lengths of transmitted packets (Byte)
system.monitor.readBandwidthHist::samples            2                       # Histogram of read bandwidth per sample period ((Byte/Second))
system.monitor.readBandwidthHist::mean     5077394000                       # Histogram of read bandwidth per sample period ((Byte/Second))
system.monitor.readBandwidthHist::gmean  5077345842.291997                       # Histogram of read bandwidth per sample period ((Byte/Second))
system.monitor.readBandwidthHist::stdev  31273918.718245                       # Histogram of read bandwidth per sample period ((Byte/Second))
system.monitor.readBandwidthHist::0-2.68435e+08            0      0.00%      0.00% # Histogram of read bandwidth per sample period ((Byte/Second))
system.monitor.readBandwidthHist::2.68435e+08-5.36871e+08            0      0.00%      0.00% # Histogram of read bandwidth per sample period ((Byte/Second))
system.monitor.readBandwidthHist::5.36871e+08-8.05306e+08            0      0.00%      0.00% # Histogram of read bandwidth per sample period ((Byte/Second))
system.monitor.readBandwidthHist::8.05306e+08-1.07374e+09            0      0.00%      0.00% # Histogram of read bandwidth per sample period ((Byte/Second))
system.monitor.readBandwidthHist::1.07374e+09-1.34218e+09            0      0.00%      0.00% # Histogram of read bandwidth per sample period ((Byte/Second))
system.monitor.readBandwidthHist::1.34218e+09-1.61061e+09            0      0.00%      0.00% # Histogram of read bandwidth per sample period ((Byte/Second))
system.monitor.readBandwidthHist::1.61061e+09-1.87905e+09            0      0.00%      0.00% # Histogram of read bandwidth per sample period ((Byte/Second))
system.monitor.readBandwidthHist::1.87905e+09-2.14748e+09            0      0.00%      0.00% # Histogram of read bandwidth per sample period ((Byte/Second))
system.monitor.readBandwidthHist::2.14748e+09-2.41592e+09            0      0.00%      0.00% # Histogram of read bandwidth per sample period ((Byte/Second))
system.monitor.readBandwidthHist::2.41592e+09-2.68435e+09            0      0.00%      0.00% # Histogram of read bandwidth per sample period ((Byte/Second))
system.monitor.readBandwidthHist::2.68435e+09-2.95279e+09            0      0.00%      0.00% # Histogram of read bandwidth per sample period ((Byte/Second))
system.monitor.readBandwidthHist::2.95279e+09-3.22123e+09            0      0.00%      0.00% # Histogram of read bandwidth per sample period ((Byte/Second))
system.monitor.readBandwidthHist::3.22123e+09-3.48966e+09            0      0.00%      0.00% # Histogram of read bandwidth per sample period ((Byte/Second))
system.monitor.readBandwidthHist::3.48966e+09-3.7581e+09            0      0.00%      0.00% # Histogram of read bandwidth per sample period ((Byte/Second))
system.monitor.readBandwidthHist::3.7581e+09-4.02653e+09            0      0.00%      0.00% # Histogram of read bandwidth per sample period ((Byte/Second))
system.monitor.readBandwidthHist::4.02653e+09-4.29497e+09            0      0.00%      0.00% # Histogram of read bandwidth per sample period ((Byte/Second))
system.monitor.readBandwidthHist::4.29497e+09-4.5634e+09            0      0.00%      0.00% # Histogram of read bandwidth per sample period ((Byte/Second))
system.monitor.readBandwidthHist::4.5634e+09-4.83184e+09            0      0.00%      0.00% # Histogram of read bandwidth per sample period ((Byte/Second))
system.monitor.readBandwidthHist::4.83184e+09-5.10027e+09            2    100.00%    100.00% # Histogram of read bandwidth per sample period ((Byte/Second))
system.monitor.readBandwidthHist::5.10027e+09-5.36871e+09            0      0.00%    100.00% # Histogram of read bandwidth per sample period ((Byte/Second))
system.monitor.readBandwidthHist::total             2                       # Histogram of read bandwidth per sample period ((Byte/Second))
system.monitor.totalReadBytes                13765340                       # Number of bytes read (Byte)
system.monitor.averageReadBandwidth      5055140618.676640      0.00%      0.00% # Average read bandwidth ((Byte/Second))
system.monitor.writeBandwidthHist::samples            2                       # Histogram of write bandwidth ((Byte/Second))
system.monitor.writeBandwidthHist::mean     208596000                       # Histogram of write bandwidth ((Byte/Second))
system.monitor.writeBandwidthHist::gmean 208448315.205472                       # Histogram of write bandwidth ((Byte/Second))
system.monitor.writeBandwidthHist::stdev 11098748.037504                       # Histogram of write bandwidth ((Byte/Second))
system.monitor.writeBandwidthHist::0-1.67772e+07            0      0.00%      0.00% # Histogram of write bandwidth ((Byte/Second))
system.monitor.writeBandwidthHist::1.67772e+07-3.35544e+07            0      0.00%      0.00% # Histogram of write bandwidth ((Byte/Second))
system.monitor.writeBandwidthHist::3.35544e+07-5.03316e+07            0      0.00%      0.00% # Histogram of write bandwidth ((Byte/Second))
system.monitor.writeBandwidthHist::5.03316e+07-6.71089e+07            0      0.00%      0.00% # Histogram of write bandwidth ((Byte/Second))
system.monitor.writeBandwidthHist::6.71089e+07-8.38861e+07            0      0.00%      0.00% # Histogram of write bandwidth ((Byte/Second))
system.monitor.writeBandwidthHist::8.38861e+07-1.00663e+08            0      0.00%      0.00% # Histogram of write bandwidth ((Byte/Second))
system.monitor.writeBandwidthHist::1.00663e+08-1.17441e+08            0      0.00%      0.00% # Histogram of write bandwidth ((Byte/Second))
system.monitor.writeBandwidthHist::1.17441e+08-1.34218e+08            0      0.00%      0.00% # Histogram of write bandwidth ((Byte/Second))
system.monitor.writeBandwidthHist::1.34218e+08-1.50995e+08            0      0.00%      0.00% # Histogram of write bandwidth ((Byte/Second))
system.monitor.writeBandwidthHist::1.50995e+08-1.67772e+08            0      0.00%      0.00% # Histogram of write bandwidth ((Byte/Second))
system.monitor.writeBandwidthHist::1.67772e+08-1.84549e+08            0      0.00%      0.00% # Histogram of write bandwidth ((Byte/Second))
system.monitor.writeBandwidthHist::1.84549e+08-2.01327e+08            1     50.00%     50.00% # Histogram of write bandwidth ((Byte/Second))
system.monitor.writeBandwidthHist::2.01327e+08-2.18104e+08            1     50.00%    100.00% # Histogram of write bandwidth ((Byte/Second))
system.monitor.writeBandwidthHist::2.18104e+08-2.34881e+08            0      0.00%    100.00% # Histogram of write bandwidth ((Byte/Second))
system.monitor.writeBandwidthHist::2.34881e+08-2.51658e+08            0      0.00%    100.00% # Histogram of write bandwidth ((Byte/Second))
system.monitor.writeBandwidthHist::2.51658e+08-2.68435e+08            0      0.00%    100.00% # Histogram of write bandwidth ((Byte/Second))
system.monitor.writeBandwidthHist::2.68435e+08-2.85213e+08            0      0.00%    100.00% # Histogram of write bandwidth ((Byte/Second))
system.monitor.writeBandwidthHist::2.85213e+08-3.0199e+08            0      0.00%    100.00% # Histogram of write bandwidth ((Byte/Second))
system.monitor.writeBandwidthHist::3.0199e+08-3.18767e+08            0      0.00%    100.00% # Histogram of write bandwidth ((Byte/Second))
system.monitor.writeBandwidthHist::3.18767e+08-3.35544e+08            0      0.00%    100.00% # Histogram of write bandwidth ((Byte/Second))
system.monitor.writeBandwidthHist::total            2                       # Histogram of write bandwidth ((Byte/Second))
system.monitor.totalWrittenBytes               628028                       # Number of bytes written ((Byte/Second))
system.monitor.averageWriteBandwidth     230635048.060291      0.00%      0.00% # Average write bandwidth ((Byte/Second))
system.monitor.readLatencyHist::samples       3352422                       # Read request-response latency (Tick)
system.monitor.readLatencyHist::mean            41250                       # Read request-response latency (Tick)
system.monitor.readLatencyHist::gmean    41250.000004                       # Read request-response latency (Tick)
system.monitor.readLatencyHist::stdev               0                       # Read request-response latency (Tick)
system.monitor.readLatencyHist::0-4095              0      0.00%      0.00% # Read request-response latency (Tick)
system.monitor.readLatencyHist::4096-8191            0      0.00%      0.00% # Read request-response latency (Tick)
system.monitor.readLatencyHist::8192-12287            0      0.00%      0.00% # Read request-response latency (Tick)
system.monitor.readLatencyHist::12288-16383            0      0.00%      0.00% # Read request-response latency (Tick)
system.monitor.readLatencyHist::16384-20479            0      0.00%      0.00% # Read request-response latency (Tick)
system.monitor.readLatencyHist::20480-24575            0      0.00%      0.00% # Read request-response latency (Tick)
system.monitor.readLatencyHist::24576-28671            0      0.00%      0.00% # Read request-response latency (Tick)
system.monitor.readLatencyHist::28672-32767            0      0.00%      0.00% # Read request-response latency (Tick)
system.monitor.readLatencyHist::32768-36863            0      0.00%      0.00% # Read request-response latency (Tick)
system.monitor.readLatencyHist::36864-40959            0      0.00%      0.00% # Read request-response latency (Tick)
system.monitor.readLatencyHist::40960-45055      3352422    100.00%    100.00% # Read request-response latency (Tick)
system.monitor.readLatencyHist::45056-49151            0      0.00%    100.00% # Read request-response latency (Tick)
system.monitor.readLatencyHist::49152-53247            0      0.00%    100.00% # Read request-response latency (Tick)
system.monitor.readLatencyHist::53248-57343            0      0.00%    100.00% # Read request-response latency (Tick)
system.monitor.readLatencyHist::57344-61439            0      0.00%    100.00% # Read request-response latency (Tick)
system.monitor.readLatencyHist::61440-65535            0      0.00%    100.00% # Read request-response latency (Tick)
system.monitor.readLatencyHist::65536-69631            0      0.00%    100.00% # Read request-response latency (Tick)
system.monitor.readLatencyHist::69632-73727            0      0.00%    100.00% # Read request-response latency (Tick)
system.monitor.readLatencyHist::73728-77823            0      0.00%    100.00% # Read request-response latency (Tick)
system.monitor.readLatencyHist::77824-81919            0      0.00%    100.00% # Read request-response latency (Tick)
system.monitor.readLatencyHist::total         3352422                       # Read request-response latency (Tick)
system.monitor.writeLatencyHist::samples       154384                       # Write request-response latency (Tick)
system.monitor.writeLatencyHist::mean               0                       # Write request-response latency (Tick)
system.monitor.writeLatencyHist::gmean              0                       # Write request-response latency (Tick)
system.monitor.writeLatencyHist::stdev              0                       # Write request-response latency (Tick)
system.monitor.writeLatencyHist::0             154384    100.00%    100.00% # Write request-response latency (Tick)
system.monitor.writeLatencyHist::1                  0      0.00%    100.00% # Write request-response latency (Tick)
system.monitor.writeLatencyHist::2                  0      0.00%    100.00% # Write request-response latency (Tick)
system.monitor.writeLatencyHist::3                  0      0.00%    100.00% # Write request-response latency (Tick)
system.monitor.writeLatencyHist::4                  0      0.00%    100.00% # Write request-response latency (Tick)
system.monitor.writeLatencyHist::5                  0      0.00%    100.00% # Write request-response latency (Tick)
system.monitor.writeLatencyHist::6                  0      0.00%    100.00% # Write request-response latency (Tick)
system.monitor.writeLatencyHist::7                  0      0.00%    100.00% # Write request-response latency (Tick)
system.monitor.writeLatencyHist::8                  0      0.00%    100.00% # Write request-response latency (Tick)
system.monitor.writeLatencyHist::9                  0      0.00%    100.00% # Write request-response latency (Tick)
system.monitor.writeLatencyHist::10                 0      0.00%    100.00% # Write request-response latency (Tick)
system.monitor.writeLatencyHist::11                 0      0.00%    100.00% # Write request-response latency (Tick)
system.monitor.writeLatencyHist::12                 0      0.00%    100.00% # Write request-response latency (Tick)
system.monitor.writeLatencyHist::13                 0      0.00%    100.00% # Write request-response latency (Tick)
system.monitor.writeLatencyHist::14                 0      0.00%    100.00% # Write request-response latency (Tick)
system.monitor.writeLatencyHist::15                 0      0.00%    100.00% # Write request-response latency (Tick)
system.monitor.writeLatencyHist::16                 0      0.00%    100.00% # Write request-response latency (Tick)
system.monitor.writeLatencyHist::17                 0      0.00%    100.00% # Write request-response latency (Tick)
system.monitor.writeLatencyHist::18                 0      0.00%    100.00% # Write request-response latency (Tick)
system.monitor.writeLatencyHist::19                 0      0.00%    100.00% # Write request-response latency (Tick)
system.monitor.writeLatencyHist::total         154384                       # Write request-response latency (Tick)
system.monitor.ittReadRead::samples           3352420                       # Read-to-read inter transaction time (Tick)
system.monitor.ittReadRead::mean           812.260099                       # Read-to-read inter transaction time (Tick)
system.monitor.ittReadRead::stdev          390.504387                       # Read-to-read inter transaction time (Tick)
system.monitor.ittReadRead::underflows         629383     18.77%     18.77% # Read-to-read inter transaction time (Tick)
system.monitor.ittReadRead::1-5000            2723037     81.23%    100.00% # Read-to-read inter transaction time (Tick)
system.monitor.ittReadRead::5001-10000              0      0.00%    100.00% # Read-to-read inter transaction time (Tick)
system.monitor.ittReadRead::10001-15000             0      0.00%    100.00% # Read-to-read inter transaction time (Tick)
system.monitor.ittReadRead::15001-20000             0      0.00%    100.00% # Read-to-read inter transaction time (Tick)
system.monitor.ittReadRead::20001-25000             0      0.00%    100.00% # Read-to-read inter transaction time (Tick)
system.monitor.ittReadRead::25001-30000             0      0.00%    100.00% # Read-to-read inter transaction time (Tick)
system.monitor.ittReadRead::30001-35000             0      0.00%    100.00% # Read-to-read inter transaction time (Tick)
system.monitor.ittReadRead::35001-40000             0      0.00%    100.00% # Read-to-read inter transaction time (Tick)
system.monitor.ittReadRead::40001-45000             0      0.00%    100.00% # Read-to-read inter transaction time (Tick)
system.monitor.ittReadRead::45001-50000             0      0.00%    100.00% # Read-to-read inter transaction time (Tick)
system.monitor.ittReadRead::50001-55000             0      0.00%    100.00% # Read-to-read inter transaction time (Tick)
system.monitor.ittReadRead::55001-60000             0      0.00%    100.00% # Read-to-read inter transaction time (Tick)
system.monitor.ittReadRead::60001-65000             0      0.00%    100.00% # Read-to-read inter transaction time (Tick)
system.monitor.ittReadRead::65001-70000             0      0.00%    100.00% # Read-to-read inter transaction time (Tick)
system.monitor.ittReadRead::70001-75000             0      0.00%    100.00% # Read-to-read inter transaction time (Tick)
system.monitor.ittReadRead::75001-80000             0      0.00%    100.00% # Read-to-read inter transaction time (Tick)
system.monitor.ittReadRead::80001-85000             0      0.00%    100.00% # Read-to-read inter transaction time (Tick)
system.monitor.ittReadRead::85001-90000             0      0.00%    100.00% # Read-to-read inter transaction time (Tick)
system.monitor.ittReadRead::90001-95000             0      0.00%    100.00% # Read-to-read inter transaction time (Tick)
system.monitor.ittReadRead::95001-100000            0      0.00%    100.00% # Read-to-read inter transaction time (Tick)
system.monitor.ittReadRead::overflows               0      0.00%    100.00% # Read-to-read inter transaction time (Tick)
system.monitor.ittReadRead::min_value               0                       # Read-to-read inter transaction time (Tick)
system.monitor.ittReadRead::max_value            1000                       # Read-to-read inter transaction time (Tick)
system.monitor.ittReadRead::total             3352420                       # Read-to-read inter transaction time (Tick)
system.monitor.ittWriteWrite::samples          154383                       # Write-to-write inter transaction time (Tick)
system.monitor.ittWriteWrite::mean       17638.159642                       # Write-to-write inter transaction time (Tick)
system.monitor.ittWriteWrite::stdev       8874.166526                       # Write-to-write inter transaction time (Tick)
system.monitor.ittWriteWrite::underflows            0      0.00%      0.00% # Write-to-write inter transaction time (Tick)
system.monitor.ittWriteWrite::1-5000            17975     11.64%     11.64% # Write-to-write inter transaction time (Tick)
system.monitor.ittWriteWrite::5001-10000        31198     20.21%     31.85% # Write-to-write inter transaction time (Tick)
system.monitor.ittWriteWrite::10001-15000        19111     12.38%     44.23% # Write-to-write inter transaction time (Tick)
system.monitor.ittWriteWrite::15001-20000        22079     14.30%     58.53% # Write-to-write inter transaction time (Tick)
system.monitor.ittWriteWrite::20001-25000        14522      9.41%     67.94% # Write-to-write inter transaction time (Tick)
system.monitor.ittWriteWrite::25001-30000        48416     31.36%     99.30% # Write-to-write inter transaction time (Tick)
system.monitor.ittWriteWrite::30001-35000          576      0.37%     99.67% # Write-to-write inter transaction time (Tick)
system.monitor.ittWriteWrite::35001-40000          250      0.16%     99.83% # Write-to-write inter transaction time (Tick)
system.monitor.ittWriteWrite::40001-45000          255      0.17%    100.00% # Write-to-write inter transaction time (Tick)
system.monitor.ittWriteWrite::45001-50000            1      0.00%    100.00% # Write-to-write inter transaction time (Tick)
system.monitor.ittWriteWrite::50001-55000            0      0.00%    100.00% # Write-to-write inter transaction time (Tick)
system.monitor.ittWriteWrite::55001-60000            0      0.00%    100.00% # Write-to-write inter transaction time (Tick)
system.monitor.ittWriteWrite::60001-65000            0      0.00%    100.00% # Write-to-write inter transaction time (Tick)
system.monitor.ittWriteWrite::65001-70000            0      0.00%    100.00% # Write-to-write inter transaction time (Tick)
system.monitor.ittWriteWrite::70001-75000            0      0.00%    100.00% # Write-to-write inter transaction time (Tick)
system.monitor.ittWriteWrite::75001-80000            0      0.00%    100.00% # Write-to-write inter transaction time (Tick)
system.monitor.ittWriteWrite::80001-85000            0      0.00%    100.00% # Write-to-write inter transaction time (Tick)
system.monitor.ittWriteWrite::85001-90000            0      0.00%    100.00% # Write-to-write inter transaction time (Tick)
system.monitor.ittWriteWrite::90001-95000            0      0.00%    100.00% # Write-to-write inter transaction time (Tick)
system.monitor.ittWriteWrite::95001-100000            0      0.00%    100.00% # Write-to-write inter transaction time (Tick)
system.monitor.ittWriteWrite::overflows             0      0.00%    100.00% # Write-to-write inter transaction time (Tick)
system.monitor.ittWriteWrite::min_value          1000                       # Write-to-write inter transaction time (Tick)
system.monitor.ittWriteWrite::max_value         50000                       # Write-to-write inter transaction time (Tick)
system.monitor.ittWriteWrite::total            154383                       # Write-to-write inter transaction time (Tick)
system.monitor.ittReqReq::samples             3506804                       # Request-to-request inter transaction time (Tick)
system.monitor.ittReqReq::mean             776.501053                       # Request-to-request inter transaction time (Tick)
system.monitor.ittReqReq::stdev            416.589987                       # Request-to-request inter transaction time (Tick)
system.monitor.ittReqReq::underflows           783767     22.35%     22.35% # Request-to-request inter transaction time (Tick)
system.monitor.ittReqReq::1-5000              2723037     77.65%    100.00% # Request-to-request inter transaction time (Tick)
system.monitor.ittReqReq::5001-10000                0      0.00%    100.00% # Request-to-request inter transaction time (Tick)
system.monitor.ittReqReq::10001-15000               0      0.00%    100.00% # Request-to-request inter transaction time (Tick)
system.monitor.ittReqReq::15001-20000               0      0.00%    100.00% # Request-to-request inter transaction time (Tick)
system.monitor.ittReqReq::20001-25000               0      0.00%    100.00% # Request-to-request inter transaction time (Tick)
system.monitor.ittReqReq::25001-30000               0      0.00%    100.00% # Request-to-request inter transaction time (Tick)
system.monitor.ittReqReq::30001-35000               0      0.00%    100.00% # Request-to-request inter transaction time (Tick)
system.monitor.ittReqReq::35001-40000               0      0.00%    100.00% # Request-to-request inter transaction time (Tick)
system.monitor.ittReqReq::40001-45000               0      0.00%    100.00% # Request-to-request inter transaction time (Tick)
system.monitor.ittReqReq::45001-50000               0      0.00%    100.00% # Request-to-request inter transaction time (Tick)
system.monitor.ittReqReq::50001-55000               0      0.00%    100.00% # Request-to-request inter transaction time (Tick)
system.monitor.ittReqReq::55001-60000               0      0.00%    100.00% # Request-to-request inter transaction time (Tick)
system.monitor.ittReqReq::60001-65000               0      0.00%    100.00% # Request-to-request inter transaction time (Tick)
system.monitor.ittReqReq::65001-70000               0      0.00%    100.00% # Request-to-request inter transaction time (Tick)
system.monitor.ittReqReq::70001-75000               0      0.00%    100.00% # Request-to-request inter transaction time (Tick)
system.monitor.ittReqReq::75001-80000               0      0.00%    100.00% # Request-to-request inter transaction time (Tick)
system.monitor.ittReqReq::80001-85000               0      0.00%    100.00% # Request-to-request inter transaction time (Tick)
system.monitor.ittReqReq::85001-90000               0      0.00%    100.00% # Request-to-request inter transaction time (Tick)
system.monitor.ittReqReq::90001-95000               0      0.00%    100.00% # Request-to-request inter transaction time (Tick)
system.monitor.ittReqReq::95001-100000              0      0.00%    100.00% # Request-to-request inter transaction time (Tick)
system.monitor.ittReqReq::overflows                 0      0.00%    100.00% # Request-to-request inter transaction time (Tick)
system.monitor.ittReqReq::min_value                 0                       # Request-to-request inter transaction time (Tick)
system.monitor.ittReqReq::max_value              1000                       # Request-to-request inter transaction time (Tick)
system.monitor.ittReqReq::total               3506804                       # Request-to-request inter transaction time (Tick)
system.monitor.outstandingReadsHist::samples            2                       # Outstanding read transactions (Count)
system.monitor.outstandingReadsHist::mean            0                       # Outstanding read transactions (Count)
system.monitor.outstandingReadsHist::gmean            0                       # Outstanding read transactions (Count)
system.monitor.outstandingReadsHist::stdev            0                       # Outstanding read transactions (Count)
system.monitor.outstandingReadsHist::0              2    100.00%    100.00% # Outstanding read transactions (Count)
system.monitor.outstandingReadsHist::1              0      0.00%    100.00% # Outstanding read transactions (Count)
system.monitor.outstandingReadsHist::2              0      0.00%    100.00% # Outstanding read transactions (Count)
system.monitor.outstandingReadsHist::3              0      0.00%    100.00% # Outstanding read transactions (Count)
system.monitor.outstandingReadsHist::4              0      0.00%    100.00% # Outstanding read transactions (Count)
system.monitor.outstandingReadsHist::5              0      0.00%    100.00% # Outstanding read transactions (Count)
system.monitor.outstandingReadsHist::6              0      0.00%    100.00% # Outstanding read transactions (Count)
system.monitor.outstandingReadsHist::7              0      0.00%    100.00% # Outstanding read transactions (Count)
system.monitor.outstandingReadsHist::8              0      0.00%    100.00% # Outstanding read transactions (Count)
system.monitor.outstandingReadsHist::9              0      0.00%    100.00% # Outstanding read transactions (Count)
system.monitor.outstandingReadsHist::10             0      0.00%    100.00% # Outstanding read transactions (Count)
system.monitor.outstandingReadsHist::11             0      0.00%    100.00% # Outstanding read transactions (Count)
system.monitor.outstandingReadsHist::12             0      0.00%    100.00% # Outstanding read transactions (Count)
system.monitor.outstandingReadsHist::13             0      0.00%    100.00% # Outstanding read transactions (Count)
system.monitor.outstandingReadsHist::14             0      0.00%    100.00% # Outstanding read transactions (Count)
system.monitor.outstandingReadsHist::15             0      0.00%    100.00% # Outstanding read transactions (Count)
system.monitor.outstandingReadsHist::16             0      0.00%    100.00% # Outstanding read transactions (Count)
system.monitor.outstandingReadsHist::17             0      0.00%    100.00% # Outstanding read transactions (Count)
system.monitor.outstandingReadsHist::18             0      0.00%    100.00% # Outstanding read transactions (Count)
system.monitor.outstandingReadsHist::19             0      0.00%    100.00% # Outstanding read transactions (Count)
system.monitor.outstandingReadsHist::total            2                       # Outstanding read transactions (Count)
system.monitor.outstandingWritesHist::samples            2                       # Outstanding write transactions (Count)
system.monitor.outstandingWritesHist::mean            0                       # Outstanding write transactions (Count)
system.monitor.outstandingWritesHist::gmean            0                       # Outstanding write transactions (Count)
system.monitor.outstandingWritesHist::stdev            0                       # Outstanding write transactions (Count)
system.monitor.outstandingWritesHist::0             2    100.00%    100.00% # Outstanding write transactions (Count)
system.monitor.outstandingWritesHist::1             0      0.00%    100.00% # Outstanding write transactions (Count)
system.monitor.outstandingWritesHist::2             0      0.00%    100.00% # Outstanding write transactions (Count)
system.monitor.outstandingWritesHist::3             0      0.00%    100.00% # Outstanding write transactions (Count)
system.monitor.outstandingWritesHist::4             0      0.00%    100.00% # Outstanding write transactions (Count)
system.monitor.outstandingWritesHist::5             0      0.00%    100.00% # Outstanding write transactions (Count)
system.monitor.outstandingWritesHist::6             0      0.00%    100.00% # Outstanding write transactions (Count)
system.monitor.outstandingWritesHist::7             0      0.00%    100.00% # Outstanding write transactions (Count)
system.monitor.outstandingWritesHist::8             0      0.00%    100.00% # Outstanding write transactions (Count)
system.monitor.outstandingWritesHist::9             0      0.00%    100.00% # Outstanding write transactions (Count)
system.monitor.outstandingWritesHist::10            0      0.00%    100.00% # Outstanding write transactions (Count)
system.monitor.outstandingWritesHist::11            0      0.00%    100.00% # Outstanding write transactions (Count)
system.monitor.outstandingWritesHist::12            0      0.00%    100.00% # Outstanding write transactions (Count)
system.monitor.outstandingWritesHist::13            0      0.00%    100.00% # Outstanding write transactions (Count)
system.monitor.outstandingWritesHist::14            0      0.00%    100.00% # Outstanding write transactions (Count)
system.monitor.outstandingWritesHist::15            0      0.00%    100.00% # Outstanding write transactions (Count)
system.monitor.outstandingWritesHist::16            0      0.00%    100.00% # Outstanding write transactions (Count)
system.monitor.outstandingWritesHist::17            0      0.00%    100.00% # Outstanding write transactions (Count)
system.monitor.outstandingWritesHist::18            0      0.00%    100.00% # Outstanding write transactions (Count)
system.monitor.outstandingWritesHist::19            0      0.00%    100.00% # Outstanding write transactions (Count)
system.monitor.outstandingWritesHist::total            2                       # Outstanding write transactions (Count)
system.monitor.readTransHist::samples               2                       # Histogram of read transactions per sample period (Count)
system.monitor.readTransHist::mean            1235282                       # Histogram of read transactions per sample period (Count)
system.monitor.readTransHist::gmean      1235270.894533                       # Histogram of read transactions per sample period (Count)
system.monitor.readTransHist::stdev       7407.650640                       # Histogram of read transactions per sample period (Count)
system.monitor.readTransHist::0-65535               0      0.00%      0.00% # Histogram of read transactions per sample period (Count)
system.monitor.readTransHist::65536-131071            0      0.00%      0.00% # Histogram of read transactions per sample period (Count)
system.monitor.readTransHist::131072-196607            0      0.00%      0.00% # Histogram of read transactions per sample period (Count)
system.monitor.readTransHist::196608-262143            0      0.00%      0.00% # Histogram of read transactions per sample period (Count)
system.monitor.readTransHist::262144-327679            0      0.00%      0.00% # Histogram of read transactions per sample period (Count)
system.monitor.readTransHist::327680-393215            0      0.00%      0.00% # Histogram of read transactions per sample period (Count)
system.monitor.readTransHist::393216-458751            0      0.00%      0.00% # Histogram of read transactions per sample period (Count)
system.monitor.readTransHist::458752-524287            0      0.00%      0.00% # Histogram of read transactions per sample period (Count)
system.monitor.readTransHist::524288-589823            0      0.00%      0.00% # Histogram of read transactions per sample period (Count)
system.monitor.readTransHist::589824-655359            0      0.00%      0.00% # Histogram of read transactions per sample period (Count)
system.monitor.readTransHist::655360-720895            0      0.00%      0.00% # Histogram of read transactions per sample period (Count)
system.monitor.readTransHist::720896-786431            0      0.00%      0.00% # Histogram of read transactions per sample period (Count)
system.monitor.readTransHist::786432-851967            0      0.00%      0.00% # Histogram of read transactions per sample period (Count)
system.monitor.readTransHist::851968-917503            0      0.00%      0.00% # Histogram of read transactions per sample period (Count)
system.monitor.readTransHist::917504-983039            0      0.00%      0.00% # Histogram of read transactions per sample period (Count)
system.monitor.readTransHist::983040-1.04858e+06            0      0.00%      0.00% # Histogram of read transactions per sample period (Count)
system.monitor.readTransHist::1.04858e+06-1.11411e+06            0      0.00%      0.00% # Histogram of read transactions per sample period (Count)
system.monitor.readTransHist::1.11411e+06-1.17965e+06            0      0.00%      0.00% # Histogram of read transactions per sample period (Count)
system.monitor.readTransHist::1.17965e+06-1.24518e+06            2    100.00%    100.00% # Histogram of read transactions per sample period (Count)
system.monitor.readTransHist::1.24518e+06-1.31072e+06            0      0.00%    100.00% # Histogram of read transactions per sample period (Count)
system.monitor.readTransHist::total                 2                       # Histogram of read transactions per sample period (Count)
system.monitor.writeTransHist::samples              2                       # Histogram of write transactions per sample period (Count)
system.monitor.writeTransHist::mean      50851.500000                       # Histogram of write transactions per sample period (Count)
system.monitor.writeTransHist::gmean     50846.919730                       # Histogram of write transactions per sample period (Count)
system.monitor.writeTransHist::stdev       965.200756                       # Histogram of write transactions per sample period (Count)
system.monitor.writeTransHist::0-4095               0      0.00%      0.00% # Histogram of write transactions per sample period (Count)
system.monitor.writeTransHist::4096-8191            0      0.00%      0.00% # Histogram of write transactions per sample period (Count)
system.monitor.writeTransHist::8192-12287            0      0.00%      0.00% # Histogram of write transactions per sample period (Count)
system.monitor.writeTransHist::12288-16383            0      0.00%      0.00% # Histogram of write transactions per sample period (Count)
system.monitor.writeTransHist::16384-20479            0      0.00%      0.00% # Histogram of write transactions per sample period (Count)
system.monitor.writeTransHist::20480-24575            0      0.00%      0.00% # Histogram of write transactions per sample period (Count)
system.monitor.writeTransHist::24576-28671            0      0.00%      0.00% # Histogram of write transactions per sample period (Count)
system.monitor.writeTransHist::28672-32767            0      0.00%      0.00% # Histogram of write transactions per sample period (Count)
system.monitor.writeTransHist::32768-36863            0      0.00%      0.00% # Histogram of write transactions per sample period (Count)
system.monitor.writeTransHist::36864-40959            0      0.00%      0.00% # Histogram of write transactions per sample period (Count)
system.monitor.writeTransHist::40960-45055            0      0.00%      0.00% # Histogram of write transactions per sample period (Count)
system.monitor.writeTransHist::45056-49151            0      0.00%      0.00% # Histogram of write transactions per sample period (Count)
system.monitor.writeTransHist::49152-53247            2    100.00%    100.00% # Histogram of write transactions per sample period (Count)
system.monitor.writeTransHist::53248-57343            0      0.00%    100.00% # Histogram of write transactions per sample period (Count)
system.monitor.writeTransHist::57344-61439            0      0.00%    100.00% # Histogram of write transactions per sample period (Count)
system.monitor.writeTransHist::61440-65535            0      0.00%    100.00% # Histogram of write transactions per sample period (Count)
system.monitor.writeTransHist::65536-69631            0      0.00%    100.00% # Histogram of write transactions per sample period (Count)
system.monitor.writeTransHist::69632-73727            0      0.00%    100.00% # Histogram of write transactions per sample period (Count)
system.monitor.writeTransHist::73728-77823            0      0.00%    100.00% # Histogram of write transactions per sample period (Count)
system.monitor.writeTransHist::77824-81919            0      0.00%    100.00% # Histogram of write transactions per sample period (Count)
system.monitor.writeTransHist::total                2                       # Histogram of write transactions per sample period (Count)
system.to_monitor_bus.transDist::ReadReq      3352422                       # Transaction distribution (Count)
system.to_monitor_bus.transDist::ReadResp      3352422                       # Transaction distribution (Count)
system.to_monitor_bus.transDist::WriteReq       154384                       # Transaction distribution (Count)
system.to_monitor_bus.transDist::WriteResp       154384                       # Transaction distribution (Count)
system.to_monitor_bus.pktCount_system.cpu.icache_port::system.monitor-cpu_side_port      5446078                       # Packet count per connected requestor and responder (Count)
system.to_monitor_bus.pktCount_system.cpu.dcache_port::system.monitor-cpu_side_port      1567534                       # Packet count per connected requestor and responder (Count)
system.to_monitor_bus.pktCount::total         7013612                       # Packet count per connected requestor and responder (Count)
system.to_monitor_bus.pktSize_system.cpu.icache_port::system.monitor-cpu_side_port     10892156                       # Cumulative packet size per connected requestor and responder (Byte)
system.to_monitor_bus.pktSize_system.cpu.dcache_port::system.monitor-cpu_side_port      3501212                       # Cumulative packet size per connected requestor and responder (Byte)
system.to_monitor_bus.pktSize::total         14393368                       # Cumulative packet size per connected requestor and responder (Byte)
system.to_monitor_bus.snoops                        0                       # Total snoops (Count)
system.to_monitor_bus.snoopTraffic                  0                       # Total snoop traffic (Byte)
system.to_monitor_bus.snoopFanout::samples      3506806                       # Request fanout histogram (Count)
system.to_monitor_bus.snoopFanout::mean             0                       # Request fanout histogram (Count)
system.to_monitor_bus.snoopFanout::stdev            0                       # Request fanout histogram (Count)
system.to_monitor_bus.snoopFanout::underflows            0      0.00%      0.00% # Request fanout histogram (Count)
system.to_monitor_bus.snoopFanout::0          3506806    100.00%    100.00% # Request fanout histogram (Count)
system.to_monitor_bus.snoopFanout::1                0      0.00%    100.00% # Request fanout histogram (Count)
system.to_monitor_bus.snoopFanout::overflows            0      0.00%    100.00% # Request fanout histogram (Count)
system.to_monitor_bus.snoopFanout::min_value            0                       # Request fanout histogram (Count)
system.to_monitor_bus.snoopFanout::max_value            0                       # Request fanout histogram (Count)
system.to_monitor_bus.snoopFanout::total      3506806                       # Request fanout histogram (Count)
system.to_monitor_bus.power_state.pwrStateResidencyTicks::UNDEFINED   2723038000                       # Cumulative time (in ticks) in various power states (Tick)
system.to_monitor_bus.snoop_filter.totRequests            0                       # Total number of requests made to the snoop filter. (Count)
system.to_monitor_bus.snoop_filter.hitSingleRequests            0                       # Number of requests hitting in the snoop filter with a single holder of the requested data. (Count)
system.to_monitor_bus.snoop_filter.hitMultiRequests            0                       # Number of requests hitting in the snoop filter with multiple (>1) holders of the requested data. (Count)
system.to_monitor_bus.snoop_filter.totSnoops            0                       # Total number of snoops made to the snoop filter. (Count)
system.to_monitor_bus.snoop_filter.hitSingleSnoops            0                       # Number of snoops hitting in the snoop filter with a single holder of the requested data. (Count)
system.to_monitor_bus.snoop_filter.hitMultiSnoops            0                       # Number of snoops hitting in the snoop filter with multiple (>1) holders of the requested data. (Count)
system.voltage_domain.voltage                       1                       # Voltage in Volts (Volt)
system.workload.inst.arm                            0                       # number of arm instructions executed (Count)
system.workload.inst.quiesce                        0                       # number of quiesce instructions executed (Count)

---------- End Simulation Statistics   ----------
