Global frequency set at 1000000000000 ticks per second
gem5 Simulator System.  https://www.gem5.org
gem5 is copyrighted software; use the --copyright option for details.

gem5 version 22.0.0.1
gem5 compiled Apr 16 2026 15:59:34
gem5 started Apr 17 2026 21:25:17
gem5 executing on OmenK, pid 12961
command line: build/X86/gem5.opt --outdir=./m5out_fft/ ../scripts/gem5/se.py --cpu-type=AtomicSimpleCPU --cpu-clock=4GHz --cacheline_size=64 --num-cpus=1 --cmd=../fft_workload/fft

Beginning simulation!
EXIT: tick=13759439250 cause=workbegin code=0
ITER_BEGIN t=0 tick=13759439250
EXIT: tick=17781815500 cause=workend code=0
ITER_END   t=0 tick=17781815500
EXIT: tick=17781823250 cause=workbegin code=1
ITER_BEGIN t=1 tick=17781823250
EXIT: tick=21644453750 cause=workend code=1
ITER_END   t=1 tick=21644453750
EXIT: tick=21644461500 cause=workbegin code=2
ITER_BEGIN t=2 tick=21644461500
EXIT: tick=25427220000 cause=workend code=2
ITER_END   t=2 tick=25427220000
EXIT: tick=25427227750 cause=workbegin code=3
ITER_BEGIN t=3 tick=25427227750
EXIT: tick=29170050250 cause=workend code=3
ITER_END   t=3 tick=29170050250
EXIT: tick=29170058000 cause=workbegin code=4
ITER_BEGIN t=4 tick=29170058000
EXIT: tick=32892912500 cause=workend code=4
ITER_END   t=4 tick=32892912500
EXIT: tick=32892920250 cause=workbegin code=5
ITER_BEGIN t=5 tick=32892920250
EXIT: tick=36605790750 cause=workend code=5
ITER_END   t=5 tick=36605790750
EXIT: tick=36605798500 cause=workbegin code=6
ITER_BEGIN t=6 tick=36605798500
EXIT: tick=40313677000 cause=workend code=6
ITER_END   t=6 tick=40313677000
EXIT: tick=40313684750 cause=workbegin code=7
ITER_BEGIN t=7 tick=40313684750
EXIT: tick=44019067250 cause=workend code=7
ITER_END   t=7 tick=44019067250
EXIT: tick=44019075000 cause=workbegin code=8
ITER_BEGIN t=8 tick=44019075000
EXIT: tick=47723209500 cause=workend code=8
ITER_END   t=8 tick=47723209500
EXIT: tick=47723217250 cause=workbegin code=9
ITER_BEGIN t=9 tick=47723217250
EXIT: tick=51426727750 cause=workend code=9
ITER_END   t=9 tick=51426727750
EXIT: tick=51426735500 cause=workbegin code=10
ITER_BEGIN t=10 tick=51426735500
EXIT: tick=55129934000 cause=workend code=10
ITER_END   t=10 tick=55129934000
EXIT: tick=55129941750 cause=workbegin code=11
ITER_BEGIN t=11 tick=55129941750
EXIT: tick=58832984250 cause=workend code=11
ITER_END   t=11 tick=58832984250
EXIT: tick=58832992000 cause=workbegin code=12
ITER_BEGIN t=12 tick=58832992000
EXIT: tick=62535956500 cause=workend code=12
ITER_END   t=12 tick=62535956500
EXIT: tick=62535964250 cause=workbegin code=13
ITER_BEGIN t=13 tick=62535964250
EXIT: tick=66238889750 cause=workend code=13
ITER_END   t=13 tick=66238889750
EXIT: tick=66238897500 cause=workbegin code=14
ITER_BEGIN t=14 tick=66238897500
EXIT: tick=69941803500 cause=workend code=14
ITER_END   t=14 tick=69941803500
EXIT: tick=69941811250 cause=workbegin code=15
ITER_BEGIN t=15 tick=69941811250
EXIT: tick=73644707500 cause=workend code=15
ITER_END   t=15 tick=73644707500
EXIT: tick=73644749750 cause=exiting with last active thread context code=0
Program finished at tick 73644749750
